# TITRE ZONE COHESIVE CZM_EXP_REG AVEC X-FEM
#            CONFIGURATION MANAGEMENT OF EDF VERSION
# ======================================================================
# COPYRIGHT (C) 1991 - 2013  EDF R&D                  WWW.CODE-ASTER.ORG
# THIS PROGRAM IS FREE SOFTWARE; YOU CAN REDISTRIBUTE IT AND/OR MODIFY
# IT UNDER THE TERMS OF THE GNU GENERAL PUBLIC LICENSE AS PUBLISHED BY
# THE FREE SOFTWARE FOUNDATION; EITHER VERSION 2 OF THE LICENSE, OR
# (AT YOUR OPTION) ANY LATER VERSION.
#
# THIS PROGRAM IS DISTRIBUTED IN THE HOPE THAT IT WILL BE USEFUL, BUT
# WITHOUT ANY WARRANTY; WITHOUT EVEN THE IMPLIED WARRANTY OF
# MERCHANTABILITY OR FITNESS FOR A PARTICULAR PURPOSE. SEE THE GNU
# GENERAL PUBLIC LICENSE FOR MORE DETAILS.
#
# YOU SHOULD HAVE RECEIVED A COPY OF THE GNU GENERAL PUBLIC LICENSE
# ALONG WITH THIS PROGRAM; IF NOT, WRITE TO EDF R&D CODE_ASTER,
#    1 AVENUE DU GENERAL DE GAULLE, 92141 CLAMART CEDEX, FRANCE.
# ======================================================================

DEBUT(CODE=_F(NOM='SSNP144A',NIV_PUB_WEB='INTERNET'),DEBUG=_F(SDVERI='NON'))
# SDVERI='NON' car la verification est trop couteuse en CPU

MAILLAG1=LIRE_MAILLAGE(FORMAT='MED');

MAILLAG2= COPIER(CONCEPT= MAILLAG1)

#----------------------------------------------
#                   MODELE ET FISSURE
#----------------------------------------------

MODELEIN=AFFE_MODELE(MAILLAGE=MAILLAG2,
                     AFFE=(_F(GROUP_MA='SURF',
                              PHENOMENE='MECANIQUE',
                              MODELISATION='C_PLAN',
                              ),
                           _F(GROUP_MA=('LIG1','LIG3'),
                              PHENOMENE='MECANIQUE',
                              MODELISATION='C_PLAN')));

MAILLAG2=DEFI_GROUP(reuse =MAILLAG2,
                    MAILLAGE=MAILLAG2,
                    CREA_GROUP_NO=(_F(GROUP_MA='SURF',
                                      NOM='SURF'),
                                   _F(NOM='SURF_SUP',
                                      OPTION='PLAN',
                                      NOEUD_CENTRE='N3',
                                      PRECISION=2.1,
                                      VECT_NORMALE=(0.0,1.0)),
                                   _F(NOM='SURF_INF',
                                      OPTION='PLAN',
                                      NOEUD_CENTRE='N1',
                                      PRECISION=2.1,
                                      VECT_NORMALE=(0.0,1.0)),
                                   _F(NOM='NSUP',
                                      NOEUD=('N7','N10')),
                                   _F(NOM='NINF',
                                      NOEUD=('N6','N11')),
                                   ));

# FORME ANALYTIQUE POUR LA FISSURE

LN = FORMULE(VALE='Y-2.5',
             NOM_PARA=('X','Y'));


FISS=DEFI_FISS_XFEM(MODELE=MODELEIN,
                    TYPE_DISCONTINUITE='INTERFACE',
                    DEFI_FISS=_F(FONC_LN=LN),
                    GROUP_MA_ENRI='SURF',
                    INFO=1);

#-------------------------------------------------
#                   CONTACT
#-------------------------------------------------

MODELEK=MODI_MODELE_XFEM(MODELE_IN=MODELEIN,
                         FISSURE=FISS,
                         CONTACT='P1P1',
                         );

CTXFEM = DEFI_CONTACT(
            MODELE         = MODELEK,
            FORMULATION    = 'XFEM',
            FROTTEMENT     = 'SANS',
            ITER_CONT_MAXI=4,
            ZONE=(
                  _F(INTEGRATION='GAUSS',
                     ORDRE_INT=2,
                     ALGO_CONT='CZM',
                     FISS_MAIT = FISS,
                     ALGO_LAGR='VERSION2',
                     RELATION='CZM_EXP_REG')));

CHXFEM=AFFE_CHAR_MECA(MODELE=MODELEK,
                      LIAISON_XFEM='OUI',
                      CONTACT_XFEM=CTXFEM,
                      INFO=2);



#----------------------------------------------
#                   MATERIAU
#----------------------------------------------
nu = 0.0;
E = 500000.0;

MATE=DEFI_MATERIAU(ELAS=_F(E=E,
                            NU=nu),
                    RUPT_FRAG=_F(GC=0.9E3,
                                 SIGM_C=1.1E6,
                                 PENA_ADHERENCE=1.0E-3,
                                 ),
                   );
CHAMPMA=AFFE_MATERIAU(MAILLAGE=MAILLAG2,
                       MODELE=MODELEK,
                       AFFE=(_F(GROUP_MA='SURF',MATER=MATE),
                            ),
                      );

#----------------------------------------------
#                   CHARGEMENTS
#----------------------------------------------
L_INST=DEFI_LIST_REEL(DEBUT=0.,
                      INTERVALLE=(
                                  _F(JUSQU_A=0.5,
                                    NOMBRE=2),
                                  _F(JUSQU_A=0.75,
                                     NOMBRE=2),
                                  _F(JUSQU_A=2,
                                     NOMBRE=10),
                                  _F(JUSQU_A=3.5,
                                     NOMBRE=10),
                                  _F(JUSQU_A=4.5,
                                     NOMBRE=2),
                                  _F(JUSQU_A=5.5,
                                     NOMBRE=2),
                                  _F(JUSQU_A=7,
                                     NOMBRE=10),
                                  _F(JUSQU_A=9.5,
                                     NOMBRE=2),
                                  _F(JUSQU_A=12,
                                     NOMBRE=10),
                                  _F(JUSQU_A=15,
                                     NOMBRE=10),
                                    ));
LINST=[0.5 , 0.75 , 2. , 3.5 , 4.5 , 5.5 , 7. , 9.5 , 12 , 15 ]

LCOEF=[1.83335E6 ,-1.83335E6 , 1.83335E6 , 1000.54574726 ,
-1000. , 1000. , 1000. , -1000., 1000. , 1000. ]
nbc=len(LINST)
#----------------MODE-I------------------------

DEPY1 = 1.0;

CH1=AFFE_CHAR_MECA(MODELE=MODELEK,
                   DDL_IMPO=(_F(GROUP_MA='LIG1',
                                DX=0.0,
                                DY=0.0),
                             _F(GROUP_MA='LIG3',
                                DX=0.0,
                                DY=DEPY1)));

#----------------MODE-II-----------------------

DEPX2 = 1.0;
DEPY2 = 1.0E-13;

CH21=AFFE_CHAR_MECA(MODELE=MODELEK,
                   DDL_IMPO=(_F(GROUP_NO='SURF_SUP',
                                DX=DEPX2)));

CH22=AFFE_CHAR_MECA(MODELE=MODELEK,
                    DDL_IMPO=(_F(GROUP_NO='SURF_INF',
                                DX=0.0,
                                DY=0.0),
                             _F(GROUP_NO='SURF_SUP',
                                DY=DEPY2),
                             _F(NOEUD=('N6','N7','N10','N11'),
                                H1Y=DEPY2/2)),
                      LIAISON_GROUP=(_F(GROUP_NO_1 = ('NSUP'),
                                        GROUP_NO_2 = ('NSUP'),
                                       DDL_1      = 'DX',
                                        DDL_2      = 'H1X',
                                        COEF_MULT_1=  1.,
                                        COEF_MULT_2=  -1.,
                                        COEF_IMPO= 0.),
                                     _F(GROUP_NO_1 = ('NINF'),
                                        GROUP_NO_2 = ('NSUP'),
                                        DDL_1      = 'H1X',
                                        DDL_2      = 'H1X',
                                        COEF_MULT_1=  1.,
                                        COEF_MULT_2=  -1.,
                                       COEF_IMPO= 0.)));


#--------------------------------------------------------
#                       CALCUL - MODE I
#--------------------------------------------------------

UTOT1=STAT_NON_LINE(MODELE=MODELEK,
                    CHAM_MATER=CHAMPMA,
                    EXCIT=(_F(CHARGE=CHXFEM),
                           _F(CHARGE=CH1,
                              TYPE_CHARGE='FIXE_PILO')),
                    CONTACT =  CTXFEM,
                    COMP_ELAS=_F(RELATION='ELAS',
                                 GROUP_MA='SURF'),
                    INCREMENT=_F(LIST_INST=L_INST,
                                 INST_FIN=0.5),
                    NEWTON=_F(REAC_ITER=1),
                    PILOTAGE=_F(TYPE='SAUT_IMPO',
                                COEF_MULT=1.83335E6,
                                FISSURE=FISS,
                                DIRE_PILO='DY'),
                    CONVERGENCE=_F(RESI_GLOB_RELA=1.E-6,
                                   ITER_GLOB_MAXI=30,
                                   ARRET='OUI'),
                    SOLVEUR=_F(METHODE='MUMPS',
                               NPREC=-1,
                               ),
                    ARCHIVAGE=_F(CHAM_EXCLU='VARI_ELGA'),
                    INFO=1);

for i in range(1,nbc) :
  UTOT1=STAT_NON_LINE(reuse =UTOT1,
                    ETAT_INIT=_F(EVOL_NOLI=UTOT1),
                    MODELE=MODELEK,
                    CHAM_MATER=CHAMPMA,
                    EXCIT=(_F(CHARGE=CHXFEM),
                           _F(CHARGE=CH1,
                              TYPE_CHARGE='FIXE_PILO')),
                    CONTACT = CTXFEM,
                    COMP_ELAS=_F(RELATION='ELAS',
                                 GROUP_MA='SURF'),
                    INCREMENT=_F(LIST_INST=L_INST,
                                 INST_FIN=LINST[i]),
                    NEWTON=_F(REAC_ITER=1),
                    PILOTAGE=_F(TYPE='SAUT_IMPO',
                                COEF_MULT=LCOEF[i],
                                FISSURE=FISS,
                                DIRE_PILO='DY'),
                    CONVERGENCE=_F(RESI_GLOB_RELA=1.E-6,
                                   ITER_GLOB_MAXI=30,
                                   ARRET='OUI'),
                    SOLVEUR=_F(METHODE='MUMPS',
                               NPREC=-1,
                               ),
                    ARCHIVAGE=_F(CHAM_EXCLU='VARI_ELGA'),
                    INFO=1);

#--------------------------------------------------------
#                      CALCUL - MODE II
#--------------------------------------------------------

UTOT2=STAT_NON_LINE(MODELE=MODELEK,
                    CHAM_MATER=CHAMPMA,
                    EXCIT=(_F(CHARGE=CHXFEM),
                           _F(CHARGE=CH22),
                           _F(CHARGE=CH21,
                              TYPE_CHARGE='FIXE_PILO')),
                    CONTACT =  CTXFEM,
                    COMP_ELAS=_F(RELATION='ELAS',
                                 GROUP_MA='SURF'),
                    INCREMENT=_F(LIST_INST=L_INST,
                                 INST_FIN=0.5),
                    NEWTON=_F(REAC_ITER=1),
                    PILOTAGE=_F(TYPE='SAUT_IMPO',
                                COEF_MULT=1.83335E6,
                                FISSURE=FISS,
                                DIRE_PILO='DX'),
                    CONVERGENCE=_F(RESI_GLOB_RELA=1.E-6,
                                   ITER_GLOB_MAXI=30,
                                   ARRET='OUI'),
                    SOLVEUR=_F(METHODE='MUMPS',
                               NPREC=-1,
   ),
                    ARCHIVAGE=_F(CHAM_EXCLU='VARI_ELGA'),
                    INFO=1);

for i in range(1,nbc) :
   UTOT2=STAT_NON_LINE(
                    reuse =UTOT2,
                    ETAT_INIT=_F(EVOL_NOLI=UTOT2),
                    MODELE=MODELEK,
                    CHAM_MATER=CHAMPMA,
                    EXCIT=(_F(CHARGE=CHXFEM),
                           _F(CHARGE=CH22),
                           _F(CHARGE=CH21,
                              TYPE_CHARGE='FIXE_PILO')),
                    CONTACT =  CTXFEM,
                    COMP_ELAS=_F(RELATION='ELAS',
                                 GROUP_MA='SURF'),
                    INCREMENT=_F(LIST_INST=L_INST,
                                 INST_FIN=LINST[i]),
                    NEWTON=_F(REAC_ITER=1),
                    PILOTAGE=_F(TYPE='SAUT_IMPO',
                                COEF_MULT=LCOEF[i],
                                DIRE_PILO='DX',
                                FISSURE=FISS,
                               ),
                    CONVERGENCE=_F(RESI_GLOB_RELA=1.E-6,
                                   ITER_GLOB_MAXI=30,
                                   ARRET='OUI'),
                    SOLVEUR=_F(METHODE='MUMPS',
                               NPREC=-1,
   ),
                    ARCHIVAGE=_F(CHAM_EXCLU='VARI_ELGA'),
                    INFO=1);
# -------------------------------------------------------------
#            POST-TRAITEMENT POUR LA VISUALISATION X-FEM
# -------------------------------------------------------------

MA_XFEM=POST_MAIL_XFEM(MODELE=MODELEK,
                       PREF_GROUP_CO='NFISSU');

MOD_VISU=AFFE_MODELE(MAILLAGE=MA_XFEM,
                     AFFE=_F(TOUT='OUI',
                             PHENOMENE='MECANIQUE',
                             MODELISATION='C_PLAN'));

RESXFEM1=POST_CHAM_XFEM(RESULTAT=UTOT1,
                        MODELE_VISU=MOD_VISU);

RESXFEM2=POST_CHAM_XFEM(RESULTAT=UTOT2,
                        MODELE_VISU=MOD_VISU);
#--------------------------------------------------------
#                  VALIDATION DES RESULTATS
#--------------------------------------------------------
TOLE=1.0E-8

LLAG=[3.66296853301E+05,
 1.8314842665E+05,
 1.098890559903E+06,
 1.75867720687844E+05,
 5.8622573562549E+04,
 1.75867720687844E+05,
 2.8117686527187E+04,
 4.68628108785798E+03,
 2.8117686527187E+04,
 7.18731177854856E+02]

LDEP=[2.72724793411E-07 ,
 1.36362396705E-07 ,
 8.18174380233E-07 ,
 1.50000000001E-03 ,
 5.0000000001E-04 ,
 1.50000000001E-03 ,
 3.00000000001E-03 ,
 5.00000000001E-04 ,
 3.00000000001E-03 ,
 6.00000000001E-03 ]

TAB1 = [None]*nbc
TAB2 = [None]*nbc
TAB3 = [None]*nbc
TAB4 = [None]*nbc

TAB10 = [None]*nbc
TAB20 = [None]*nbc
TAB30 = [None]*nbc
TAB40 = [None]*nbc

VALE_CALC=[3.6629685330084E+05,
 3.6629685330084E+05,
 2.7272479341534E-07,
 2.7272479341534E-07,
 1.8314842665042E+05,
 1.8314842665042E+05,
 1.3636239681869E-07,
 1.3636239670767E-07,
 1.0988905599025E+06,
 1.0988905599025E+06,
 8.1817438157827E-07,
 8.1817437980192E-07,
 1.7586772068623E+05,
 1.7586772068623E+05,
 1.5000000000069E-03,
 1.5000000000065E-03,
 58622.573562598,
 58622.573562598,
 5.0000000000672E-04,
 5.0000000000666E-04,
 1.7586772068623E+05,
# ... 58 like lines cut
 6.0000000000066E-03,]

#--------------------------------------------------------
#                           MODE I
#--------------------------------------------------------
SAUT=FORMULE(NOM_PARA=('DYP','DYM'),
             VALE='DYP-DYM');

for i in range(0,nbc) :

   TAB1[i]=POST_RELEVE_T(ACTION=_F(INTITULE='DEPLE',
                                   GROUP_NO=('NFISSU'),
                                   RESULTAT=RESXFEM1,
                                   NOM_CHAM='DEPL',
                                   INST=LINST[i],
                                   TOUT_CMP='OUI',
                                   OPERATION='EXTRACTION'));

   TAB2[i]=CALC_TABLE(TABLE=TAB1[i],
                      ACTION=(_F(OPERATION='FILTRE',
                                NOM_PARA='NOEUD',
                                CRIT_COMP='REGEXP',
                                VALE_K='NM'),
                               _F(OPERATION='RENOMME',
                                NOM_PARA=('DY','DYM')),
                               ));

   TAB3[i]=CALC_TABLE(TABLE=TAB1[i],
                      ACTION=(_F(OPERATION='FILTRE',
                                NOM_PARA='NOEUD',
                                CRIT_COMP='REGEXP',
                                VALE_K='NP'),
                             _F(OPERATION='RENOMME',
                                NOM_PARA=('DY','DYP')),
                              ));

   TAB4[i]=CALC_TABLE(TABLE=TAB2[i],
                      ACTION=(_F(OPERATION='COMB',
                                TABLE=TAB3[i],
                                NOM_PARA=('INST','COOR_X')),
                              _F(OPERATION='OPER',
                                FORMULE=SAUT,
                                NOM_PARA='SAUY'),
                              ));


   TEST_TABLE(TABLE=TAB1[i],
              NOM_PARA='LAGS_C',
              TYPE_TEST='MAX',
              VALE_CALC=VALE_CALC[i*4], VALE_REFE=LLAG[i],
              CRITERE='RELATIF',
              PRECISION=TOLE,
              REFERENCE='ANALYTIQUE');

   TEST_TABLE(TABLE=TAB1[i],
              NOM_PARA='LAGS_C',
              TYPE_TEST='MIN',
              VALE_CALC=VALE_CALC[i*4+1], VALE_REFE=LLAG[i],
              CRITERE='RELATIF',
              PRECISION=TOLE,
              REFERENCE='ANALYTIQUE');

   TEST_TABLE(TABLE=TAB4[i],
              NOM_PARA='SAUY',
              TYPE_TEST='MAX',
              VALE_CALC=VALE_CALC[i*4+2], VALE_REFE=LDEP[i],
              CRITERE='RELATIF',
              PRECISION=TOLE,
              REFERENCE='ANALYTIQUE');

   TEST_TABLE(TABLE=TAB4[i],
              NOM_PARA='SAUY',
              TYPE_TEST='MIN',
              VALE_CALC=VALE_CALC[i*4+3], VALE_REFE=LDEP[i],
              CRITERE='RELATIF',
              PRECISION=TOLE,
              REFERENCE='ANALYTIQUE');

#--------------------------------------------------------
#                           MODE II
#--------------------------------------------------------
SAUTX=FORMULE(NOM_PARA=('DXP','DXM'),
             VALE='DXP-DXM');

for i in range(0,nbc) :

   TAB10[i]=POST_RELEVE_T(ACTION=_F(INTITULE='DEPLE',
                                   GROUP_NO=('NFISSU'),
                                   RESULTAT=RESXFEM2,
                                   NOM_CHAM='DEPL',
                                   INST=LINST[i],
                                   TOUT_CMP='OUI',
                                   OPERATION='EXTRACTION'));
   TAB20[i]=CALC_TABLE(TABLE=TAB10[i],
                       ACTION=(_F(OPERATION='FILTRE',
                                NOM_PARA='NOEUD',
                                CRIT_COMP='REGEXP',
                                VALE_K='NM'),
                               _F(OPERATION='RENOMME',
                                NOM_PARA=('DX','DXM')),
                               ));

   TAB30[i]=CALC_TABLE(TABLE=TAB10[i],
                      ACTION=(_F(OPERATION='FILTRE',
                                NOM_PARA='NOEUD',
                                CRIT_COMP='REGEXP',
                                VALE_K='NP'),
                             _F(OPERATION='RENOMME',
                                NOM_PARA=('DX','DXP')),
                              ));

   TAB40[i]=CALC_TABLE(TABLE=TAB20[i],
                      ACTION=(_F(OPERATION='COMB',
                                TABLE=TAB30[i],
                                NOM_PARA=('INST','COOR_X')),
                              _F(OPERATION='OPER',
                                FORMULE=SAUTX,
                                NOM_PARA='SAUX'),
                              ));
   TEST_TABLE(TABLE=TAB10[i],
              NOM_PARA='LAGS_F1',
              TYPE_TEST='MAX',
              VALE_ABS='OUI',
              VALE_CALC=VALE_CALC[4*nbc+i*4], VALE_REFE=LLAG[i],
              CRITERE='RELATIF',
              PRECISION=TOLE,
              REFERENCE='ANALYTIQUE');

   TEST_TABLE(TABLE=TAB10[i],
              NOM_PARA='LAGS_F1',
              TYPE_TEST='MIN',
              VALE_ABS='OUI',
              VALE_CALC=VALE_CALC[4*nbc+i*4+1], VALE_REFE=LLAG[i],
              CRITERE='RELATIF',
              PRECISION=TOLE,
              REFERENCE='ANALYTIQUE');

   TEST_TABLE(TABLE=TAB40[i],
              NOM_PARA='SAUX',
              TYPE_TEST='MAX',
              VALE_CALC=VALE_CALC[4*nbc+i*4+2], VALE_REFE=LDEP[i],
              CRITERE='RELATIF',
              PRECISION=TOLE,
              REFERENCE='ANALYTIQUE');

   TEST_TABLE(TABLE=TAB40[i],
              NOM_PARA='SAUX',
              TYPE_TEST='MIN',
              VALE_CALC=VALE_CALC[4*nbc+i*4+3], VALE_REFE=LDEP[i],
              CRITERE='RELATIF',
              PRECISION=TOLE,
              REFERENCE='ANALYTIQUE');
FIN();
