# MODIF  DATE 30/07/2012   AUTEUR LEFEBVRE J-P.LEFEBVRE 
# TITRE COMPORTEMENT NON LINEAIRE D'UNE NAPPE D'ARMATURES SOUS CHARGEMENT THERMIQUE. GRILLE_PINTO_MEN
# ssns100c.para = tps_job 60 mem_job 512Mo ncpus 1 liste_test S
#            CONFIGURATION MANAGEMENT OF EDF VERSION
# ======================================================================
# COPYRIGHT (C) 1991 - 2012  EDF R&D                  WWW.CODE-ASTER.ORG
# THIS PROGRAM IS FREE SOFTWARE; YOU CAN REDISTRIBUTE IT AND/OR MODIFY
# IT UNDER THE TERMS OF THE GNU GENERAL PUBLIC LICENSE AS PUBLISHED BY
# THE FREE SOFTWARE FOUNDATION; EITHER VERSION 2 OF THE LICENSE, OR
# (AT YOUR OPTION) ANY LATER VERSION.
#
# THIS PROGRAM IS DISTRIBUTED IN THE HOPE THAT IT WILL BE USEFUL, BUT
# WITHOUT ANY WARRANTY; WITHOUT EVEN THE IMPLIED WARRANTY OF
# MERCHANTABILITY OR FITNESS FOR A PARTICULAR PURPOSE. SEE THE GNU
# GENERAL PUBLIC LICENSE FOR MORE DETAILS.
#
# YOU SHOULD HAVE RECEIVED A COPY OF THE GNU GENERAL PUBLIC LICENSE
# ALONG WITH THIS PROGRAM; IF NOT, WRITE TO EDF R&D CODE_ASTER,
#    1 AVENUE DU GENERAL DE GAULLE, 92141 CLAMART CEDEX, FRANCE.
# ======================================================================

DEBUT(CODE=_F(NOM='SSNS100C',NIV_PUB_WEB='INTERNET'),DEBUG=_F(SDVERI='OUI'))

#-----------------------------------------------------------------------
# VALIDATION DU MODELE GRILLE_PINTO_MEN EN PLASTICITE
#-----------------------------------------------------------------------

MAILL1=LIRE_MAILLAGE(   )


MAILTOT=CREA_MAILLAGE(
               MAILLAGE=MAILL1,
               CREA_GROUP_MA=_F(
                   NOM = 'GEOBB',
                   GROUP_MA = 'GEOB',
                   PREF_MAILLE = 'B',
                              )
                           )
#
# -----------------------------------------------------
# DEFINITION DES MATERIAUX
# -----------------------------------------------------
#

ACIER=DEFI_MATERIAU(   ELAS=_F(  E = 2.E11,
                                    NU = 0.3,
                                    ALPHA = 1.E-5,         ),
                  PINTO_MENEGOTTO=_F(  SY = 2.E8,
                                    EPSI_ULTM = 3.E-2,
                                    SIGM_ULTM = 2.58E8,
                                    EPSP_HARD = 0.0023,
                                    R_PM = 20.0,
                                    EP_SUR_E = 0.01,
                                    A1_PM = 18.5,
                                    A2_PM = 0.15,
                                    ELAN = 4.9,
                                    A6_PM = 620.0,
                                    C_PM = 0.5,
                                    A_PM = 0.008,          )
                           )

#
# -------------------------------------------------
# AFFECTATION DES MODELES
# -------------------------------------------------
#
LEMOD=AFFE_MODELE(    MAILLAGE=MAILTOT,     VERIF='MAILLE',
                        AFFE=_F(  GROUP_MA = ('GEOB','GEOBB',),
                               PHENOMENE = 'MECANIQUE',
                               MODELISATION = 'GRILLE_EXCENTRE',
                             )
                      )

# -------------------------------------------------
# AFFECTATION DES CARACTERISTIQUES
# -------------------------------------------------
#
LACAR=AFFE_CARA_ELEM(    MODELE=LEMOD,
                       GRILLE=(
                             _F( GROUP_MA = 'GEOB',
                                SECTION = .01,
                                ANGL_REP = (0.0, 0.0,),
                                EXCENTREMENT = 0.0,
                               ),
                             _F( GROUP_MA = 'GEOBB',
                                SECTION = .01,
                                ANGL_REP = (90.0, 0.0,),
                                EXCENTREMENT = 0.0,
                               ),),
                        )

# -------------------------------------------------
# CONSTRUCTION DU CHAMP DE TEMPERATURE POUR
# TENTER DE REPRODUIRE LA PRECONTRAINTE
# ------------------------------------------------
#
T0=CREA_CHAMP( OPERATION='AFFE', TYPE_CHAM='NOEU_TEMP_R',
MAILLAGE=MAILTOT,
                          AFFE=_F(
                           TOUT = 'OUI',
                           NOM_CMP = ('TEMP', 'TEMP_INF', 'TEMP_SUP',),
                           VALE = (50., 50., 50.,),
                               )
                      )


T1=CREA_CHAMP( OPERATION='AFFE', TYPE_CHAM='NOEU_TEMP_R',
MAILLAGE=MAILTOT,
                          AFFE=_F(
                           TOUT = 'OUI',
                           NOM_CMP = ('TEMP', 'TEMP_INF', 'TEMP_SUP',),
                           VALE = (-300., -300., -300.,),
                               )
                      )

T2=CREA_CHAMP( OPERATION='AFFE', TYPE_CHAM='NOEU_TEMP_R',
MAILLAGE=MAILTOT,
                          AFFE=_F(
                           TOUT = 'OUI',
                           NOM_CMP = ('TEMP', 'TEMP_INF', 'TEMP_SUP',),
                           VALE = (-100., -100., -100.,),
                               )
                      )

T3=CREA_CHAMP( OPERATION='AFFE', TYPE_CHAM='NOEU_TEMP_R',
MAILLAGE=MAILTOT,
                          AFFE=_F(
                           TOUT = 'OUI',
                           NOM_CMP = ('TEMP', 'TEMP_INF', 'TEMP_SUP',),
                           VALE = (50., 50., 50.,),
                               )
                      )

T4=CREA_CHAMP( OPERATION='AFFE', TYPE_CHAM='NOEU_TEMP_R',
MAILLAGE=MAILTOT,
                          AFFE=_F(
                           TOUT = 'OUI',
                           NOM_CMP = ('TEMP', 'TEMP_INF', 'TEMP_SUP',),
                           VALE = (-150., -150., -150.,),
                               )
                      )

T5=CREA_CHAMP( OPERATION='AFFE', TYPE_CHAM='NOEU_TEMP_R',
MAILLAGE=MAILTOT,
                          AFFE=_F(
                           TOUT = 'OUI',
                           NOM_CMP = ('TEMP', 'TEMP_INF', 'TEMP_SUP',),
                           VALE = (-350., -350., -350.,),
                               )
                      )

T6=CREA_CHAMP( OPERATION='AFFE', TYPE_CHAM='NOEU_TEMP_R',
MAILLAGE=MAILTOT,
                          AFFE=_F(
                           TOUT = 'OUI',
                           NOM_CMP = ('TEMP', 'TEMP_INF', 'TEMP_SUP',),
                           VALE = (-200., -200., -200.,),
                               )
                      )

LATEMP=CREA_RESU(
             OPERATION='AFFE', TYPE_RESU='EVOL_THER',
              NOM_CHAM='TEMP',AFFE=(
           _F( CHAM_GD = T0,  INST = 0.,),
           _F( CHAM_GD = T1,  INST = 1.,),
           _F( CHAM_GD = T2,  INST = 2.,),
           _F( CHAM_GD = T3,  INST = 3.,),
           _F( CHAM_GD = T4,  INST = 4.,),
           _F( CHAM_GD = T5,  INST = 5.,),
           _F( CHAM_GD = T6,  INST = 6.,),
           )
        )
TEMPER1=CREA_RESU(  OPERATION='PREP_VRC2', TYPE_RESU='EVOL_THER',
    PREP_VRC2= _F(  MODELE=LEMOD, CARA_ELEM=LACAR, EVOL_THER = LATEMP, ),)

#
# -------------------------------------------------
# AFFECTATION DES MATERIAUX
# -------------------------------------------------
#
MATAF=AFFE_MATERIAU(    MAILLAGE=MAILTOT,
                          AFFE=(
                          _F(  GROUP_MA = 'GEOB',
                                 MATER = ACIER,

                               ),
                          _F(  GROUP_MA = 'GEOBB',
                                 MATER = ACIER,

                               ),),
                          AFFE_VARC=  _F(TOUT='OUI',EVOL=TEMPER1,NOM_VARC='TEMP',
                                     NOM_CHAM='TEMP',VALE_REF=50.0), )


# ----------------------------------------------
# CHARGEMENT
# ----------------------------------------------
#
ZCHM=AFFE_CHAR_MECA(
             MODELE=LEMOD,
            DDL_IMPO=_F(  TOUT = 'OUI',
                       DX = 0.,   DY = 0.,   DZ = 0.,
                       DRX = 0.,   DRY = 0.,   DRZ = 0.,  )
                       )

#
# ----------------------------------------------
# CALCUL
# ----------------------------------------------
#


ZLIST=DEFI_LIST_REEL(   DEBUT=0.,
             INTERVALLE=_F( JUSQU_A = 10.0,  NOMBRE = 10, )
           )

LEDEP=STAT_NON_LINE(
                            MODELE=LEMOD,
                        CHAM_MATER=MATAF,
                         CARA_ELEM=LACAR,
                             EXCIT=_F(
                CHARGE = ZCHM,
                ),
                         COMP_INCR=_F(
                RELATION = 'GRILLE_PINTO_MEN',
                ),
                         INCREMENT=_F(
                LIST_INST = ZLIST,
                NUME_INST_FIN = 6,
                ),
                            NEWTON=_F(
                MATRICE = 'TANGENTE',
                REAC_ITER = 10,
                ),
                       CONVERGENCE=_F(
                RESI_GLOB_MAXI = 1.E-3,
                ITER_GLOB_MAXI = 30,
                ),
                     RECH_LINEAIRE=_F(
                ITER_LINE_MAXI = 10,
                )
              )

LEDEP=CALC_CHAMP(reuse=LEDEP,CONTRAINTE=('SIGM_ELNO'),VARI_INTERNE=('VARI_ELNO'),RESULTAT=LEDEP)


#
# -------------------------------------------------
# POST TRAITEMENT DES RESULTATS
# -------------------------------------------------
#


# SICO_ELNO DEVIENT INUTILE POUR LES GRILLES
#LEDEP=CALC_ELEM(reuse=LEDEP,     RESULTAT=LEDEP,
#                             OPTION='SICO_ELNO' )

#
TEST_RESU(RESU=(

            _F( RESULTAT = LEDEP,
             INST = 1.,
             NOM_CHAM = 'SIGM_ELNO',
             NOM_CMP = 'SIXX',
             MAILLE = 'MA1',
             NOEUD = 'NO1',
             VALE = 2.09416E+08,
             PRECISION = 0.001,
            ),
            _F( RESULTAT = LEDEP,
             INST = 1.,
             NOM_CHAM = 'SIGM_ELNO',
             NOM_CMP = 'SIXX',
             MAILLE = 'BMA1',
             NOEUD = 'NO1',
             VALE = 2.09416E+08,
             PRECISION = 0.001,
            ),
            _F( RESULTAT = LEDEP,
             INST = 2.,
             NOM_CHAM = 'SIGM_ELNO',
             NOM_CMP = 'SIXX',
             MAILLE = 'MA1',
             NOEUD = 'NO1',
             VALE = -1.21555E+08,
             PRECISION = 0.001,
            ),
            _F( RESULTAT = LEDEP,
             INST = 2.,
             NOM_CHAM = 'SIGM_ELNO',
             NOM_CMP = 'SIXX',
             MAILLE = 'BMA1',
             NOEUD = 'NO1',
             VALE = -1.21555E+08,
             PRECISION = 0.001,
            ),
            _F( RESULTAT = LEDEP,
             INST = 3.,
             NOM_CHAM = 'SIGM_ELNO',
             NOM_CMP = 'SIXX',
             MAILLE = 'MA1',
             NOEUD = 'NO1',
             VALE = -1.82862E+08,
             PRECISION = 0.001,
            ),
            _F( RESULTAT = LEDEP,
             INST = 3.,
             NOM_CHAM = 'SIGM_ELNO',
             NOM_CMP = 'SIXX',
             MAILLE = 'BMA1',
             NOEUD = 'NO1',
             VALE = -1.82862E+08,
             PRECISION = 0.001,
            ),
            _F( RESULTAT = LEDEP,
             INST = 4.,
             NOM_CHAM = 'SIGM_ELNO',
             NOM_CMP = 'SIXX',
             MAILLE = 'MA1',
             NOEUD = 'NO1',
             VALE = 1.52164E+08,
             PRECISION = 0.001,
            ),
            _F( RESULTAT = LEDEP,
             INST = 4.,
             NOM_CHAM = 'SIGM_ELNO',
             NOM_CMP = 'SIXX',
             MAILLE = 'BMA1',
             NOEUD = 'NO1',
             VALE = 1.52164E+08,
             PRECISION = 0.001,
            ),
            _F( RESULTAT = LEDEP,
             INST = 5.,
             NOM_CHAM = 'SIGM_ELNO',
             NOM_CMP = 'SIXX',
             MAILLE = 'MA1',
             NOEUD = 'NO1',
             VALE = 2.02506E+08,
             PRECISION = 0.001,
            ),
            _F( RESULTAT = LEDEP,
             INST = 5.,
             NOM_CHAM = 'SIGM_ELNO',
             NOM_CMP = 'SIXX',
             MAILLE = 'BMA1',
             NOEUD = 'NO1',
             VALE = 2.02506E+08,
             PRECISION = 0.001,
            ),
            _F( RESULTAT = LEDEP,
             INST = 6.,
             NOM_CHAM = 'SIGM_ELNO',
             NOM_CMP = 'SIXX',
             MAILLE = 'MA1',
             NOEUD = 'NO1',
             VALE = -7.59307E+07,
             PRECISION = 0.001,
            ),
            _F( RESULTAT = LEDEP,
             INST = 6.,
             NOM_CHAM = 'SIGM_ELNO',
             NOM_CMP = 'SIXX',
             MAILLE = 'BMA1',
             NOEUD = 'NO1',
             VALE = -7.59307E+07,
             PRECISION = 0.001,
            ))
        )

FIN()
#
#
