# ======================================================================
# COPYRIGHT (C) 1991 - 2016  EDF R&D                  WWW.CODE-ASTER.ORG
# THIS PROGRAM IS FREE SOFTWARE; YOU CAN REDISTRIBUTE IT AND/OR MODIFY
# IT UNDER THE TERMS OF THE GNU GENERAL PUBLIC LICENSE AS PUBLISHED BY
# THE FREE SOFTWARE FOUNDATION; EITHER VERSION 2 OF THE LICENSE, OR
# (AT YOUR OPTION) ANY LATER VERSION.
#
# THIS PROGRAM IS DISTRIBUTED IN THE HOPE THAT IT WILL BE USEFUL, BUT
# WITHOUT ANY WARRANTY; WITHOUT EVEN THE IMPLIED WARRANTY OF
# MERCHANTABILITY OR FITNESS FOR A PARTICULAR PURPOSE. SEE THE GNU
# GENERAL PUBLIC LICENSE FOR MORE DETAILS.
#
# YOU SHOULD HAVE RECEIVED A COPY OF THE GNU GENERAL PUBLIC LICENSE
# ALONG WITH THIS PROGRAM; IF NOT, WRITE TO EDF R&D CODE_ASTER,
#    1 AVENUE DU GENERAL DE GAULLE, 92141 CLAMART CEDEX, FRANCE.
# ======================================================================
#
import math
MPa = 1e6
#-----------------------------------------------
# PARAMETRES DU CALCUL
#-----------------------------------------------
## BETON
# epaisseur de la plaque
ep_beton = 0.15
# module de Young  beton
E_beton = 28500*MPa
# coefficient de poisson  beton
Nu_beton = 0.2
# masse volumique beton
Rho_beton =2500
# contrainte limite de traction
ft =1.6*MPa
# pente post-pic en traction
DE_beton = -E_beton
# contrainte limite en compressio
fc = -25*MPa
# parametre d'endommagment du beton
gamma_c = 0.7

## ACIER
# section acier lonigitudinal inf (mm2/m)
section_acier = 2*math.pi*(0.014*0.5)**2/ep_beton
# excentrement des aciers entre 0 et 1
excentr = 0.8
# module de Young acier
E_acier = 195000*MPa
# coefficient de Poisson acier
Nu_acier = 0.3
# limite elastique acier
sy_acier = 610*MPa
# module d'ecrouissage acier
Dsde_acier = E_acier/10000.
# masse volumique acier
Rho_acier = 7500

DEBUT(CODE=_F(NIV_PUB_WEB='INTERNET'),DEBUG=_F(SDVERI='OUI'))

#-----------------------------------------------
# LECTURE DU MAILLAGE
#-----------------------------------------------
MAIL=LIRE_MAILLAGE(FORMAT='MED',);

MAIL=DEFI_GROUP(reuse =MAIL,
                MAILLAGE=MAIL,
                CREA_GROUP_NO=(_F(GROUP_MA='A',),
                               _F(GROUP_MA='B',),),);

MAIL=MODI_MAILLAGE(reuse =MAIL,
                   MAILLAGE=MAIL,
                   ORIE_NORM_COQUE=_F(GROUP_MA='POUTRE',
                                      VECT_NORM=(0.,1.,0.,),
                                      GROUP_NO='AA',),);

#-----------------------------------------------
# CREATION DU MODELE
#-----------------------------------------------
MO=AFFE_MODELE(MAILLAGE=MAIL,
               AFFE=_F(TOUT='OUI',
                       PHENOMENE='MECANIQUE',
                       MODELISATION='DKTG',),);

#-----------------------------------------------
# DEFINTION DES MATERIAUX ET CARACTERSISTIQUES
#-----------------------------------------------
BETON=DEFI_MATERIAU(ELAS=_F(E=E_beton,
                            NU=Nu_beton,
                            RHO=Rho_beton,),
                    BETON_ECRO_LINE=_F(D_SIGM_EPSI=DE_beton,
                                       SYT=ft,),);

ACIER=DEFI_MATERIAU(ELAS=_F(E=E_acier,
                            NU=Nu_acier,
                            RHO=Rho_acier,),
                    ECRO_LINE=_F(D_SIGM_EPSI=Dsde_acier,
                                 SY=sy_acier,),);
 
MAT_T1=DEFI_GLRC(RELATION='GLRC_DM',
                 BETON=_F(MATER=BETON,
                          EPAIS=ep_beton),
                 NAPPE=_F(MATER=ACIER,
                          OMX=section_acier,
                          OMY=section_acier, 
                          RX=excentr,
                          RY=excentr,),
                COMPR='GAMMA',
                GAMMA_C=gamma_c,        
                INFO=2,);

# la parametres de GLRC sont obtenus a partir de la commande DEFI_GLRC precdente, on y ajoute les parametres
# GAMMA_C
# ALPHA_C

MAT_T=DEFI_MATERIAU(ELAS_GLRC=_F(E_M=34017455010.1217,
                                 NU_M=0.169526519709666,
                                 E_F=39050803170.5617,
                                 NU_F=0.148684256599951),
                    GLRC_DM=_F(NYT=284655.602596095,
                               NYC=462878.885865470,
                               MYF=8134.26013556288,
                               GAMMA_T=0.156875895604477,
                               GAMMA_C=0.35,
                               GAMMA_F=0.406803320715256,
                               ALPHA_C=60,),);
                               
MATER=AFFE_MATERIAU(MAILLAGE=MAIL,
                    AFFE=(_F(TOUT='OUI',
                             MATER=MAT_T,),),);

CAEL=AFFE_CARA_ELEM(MODELE=MO,
                    COQUE=_F(GROUP_MA='POUTRE',
                             EPAIS=ep_beton,
                             ANGL_REP=(0.0,0.0,),
                             INER_ROTA='OUI',),);

#-----------------------------------------------
# DEFINTION DES CONDITIONS AUX LIMITES ET CHARGEMENTS
#-----------------------------------------------
CL=AFFE_CHAR_MECA(MODELE=MO,
                  DDL_IMPO=(_F(GROUP_NO='AA',
                               DX=0.0,
                               DY=0.0,
                               DZ=0.0,
                               DRX=0.0,
                               DRY=0.0,
                               DRZ=0.0,),
                            _F(GROUP_MA='A',
                               DX=0.0,
                               DRY=0.0,),),);

CHARGE=AFFE_CHAR_MECA(MODELE=MO,
                      FORCE_ARETE=_F(GROUP_MA='B',
                                     FX=1000.0/0.15,),);

t1 = 1.0
t2 = 3.0
t3 = 5.0
t4 = 7.0
t5 = 9.0
t6 = 11.0
t7 = 13.0
t8 = 15.0
t9 = 17.0
t10 = 19.0

dt = 0.05;

FOFO=DEFI_FONCTION(NOM_PARA='INST',
                   VALE=(0.0,0.0,
                         t1,-250.,
                         t2,55.,
                         t3,-365.0,
                         t4,176.0,
                         t5,-490.0,
                         t6,298.0,
                         t7,-675.0,
                         t8,368.0,
                         t9,-790.0,
                         t10,376.0,),
                   PROL_DROITE='CONSTANT',
                   PROL_GAUCHE='CONSTANT',);

INST=DEFI_LIST_REEL(DEBUT=0.0,
                    INTERVALLE=_F(JUSQU_A=t10,
                                  PAS=dt,),);

LINST=DEFI_LIST_INST(DEFI_LIST=_F(METHODE='MANUEL',
                                  LIST_INST=INST,),
                     ECHEC=_F(ACTION='DECOUPE',
                              SUBD_METHODE='MANUEL',),);

#-----------------------------------------------
# CALCUL DES RESULTATS POUR LE CHARGEMENT
#-----------------------------------------------
RESU=STAT_NON_LINE(MODELE=MO,
                   CHAM_MATER=MATER,
                   CARA_ELEM=CAEL,
                   EXCIT=(_F(CHARGE=CL),
                          _F(CHARGE=CHARGE,
                             FONC_MULT=FOFO,),),
                   COMPORTEMENT=_F(RELATION='GLRC_DM',
                                   ITER_INTE_MAXI=30,),
                   INCREMENT=_F(LIST_INST=LINST,),
                   NEWTON=_F(REAC_ITER=1,),);

#-----------------------------------------------
# CALCUL DES TEST_RESU
#-----------------------------------------------
# les resultats experimentaux sont donnees dans le fichier joint
# il s'agit des points de la numerisation de la courbe de reponse du specimen: deformation (-) et force (kN)                   
INCLUDE(UNITE = 12)

# on a identifie les points numerises les plus proches des pic de chaque cycle pour la comparaison avec la solution numerique
# les deformations sont converties en deplacement par la multiplication par la longueur du speciment l= 0.7m
TEST_RESU(RESU=(_F(NOM_CMP='DX',
                     GROUP_NO=('BB', ),
                     INST=t1,
                     NOM_CHAM='DEPL',
                     RESULTAT=RESU,
                     CRITERE=('RELATIF', 'ABSOLU'),
                     REFERENCE='SOURCE_EXTERNE',
                     VALE_CALC=(-2.3438498225049E-04, ),
                     VALE_REFE=(val_exp[2*247]*0.7, ),
                     PRECISION=0.04,),
                  _F(NOM_CMP='DX',
                     GROUP_NO=('BB', ),
                     INST=t2,
                     NOM_CHAM='DEPL',
                     RESULTAT=RESU,
                     CRITERE=('RELATIF', 'ABSOLU'),
                     REFERENCE='SOURCE_EXTERNE',
                     VALE_CALC=(1.0584824995973E-04, ),
                     VALE_REFE=(val_exp[2*367]*0.7 ),
                     PRECISION=0.4,),
                  _F(NOM_CMP='DX',
                     GROUP_NO=('BB', ),
                     INST=t3,
                     NOM_CHAM='DEPL',
                     RESULTAT=RESU,
                     CRITERE=('RELATIF', 'ABSOLU'),
                     REFERENCE='SOURCE_EXTERNE',
                     VALE_CALC=(-3.882093051717E-04, ),
                     VALE_REFE=(val_exp[2*171]*0.7, ),
                     PRECISION=0.01,
                     VALE_ABS='NON',),
                  _F(NOM_CMP='DX',
                     GROUP_NO=('BB', ),
                     INST=t4,
                     NOM_CHAM='DEPL',
                     RESULTAT=RESU,
                     CRITERE=('RELATIF', 'ABSOLU'),
                     REFERENCE='SOURCE_EXTERNE',
                     VALE_CALC=(7.7427714005794E-04, ),
                     VALE_REFE=(val_exp[2*501]*0.7, ),
                     PRECISION=0.2,),
                  _F(NOM_CMP='DX',
                     GROUP_NO=('BB', ),
                     INST=t5,
                     NOM_CHAM='DEPL',
                     RESULTAT=RESU,
                     CRITERE=('RELATIF', 'ABSOLU'),
                     REFERENCE='SOURCE_EXTERNE',
                     VALE_CALC=(-6.8903274423176E-04, ),
                     VALE_REFE=(val_exp[2*113]*0.7, ),
                     PRECISION=0.25,
                     VALE_ABS='NON',),
                  _F(NOM_CMP='DX',
                     GROUP_NO=('BB', ),
                     INST=t6,
                     NOM_CHAM='DEPL',
                     RESULTAT=RESU,
                     CRITERE=('RELATIF', 'ABSOLU'),
                     REFERENCE='SOURCE_EXTERNE',
                     VALE_CALC=(1.5118198422977E-03 , ),
                     VALE_REFE=(val_exp[2*568]*0.7, ),
                     PRECISION=0.03,),
                  _F(NOM_CMP='DX',
                     GROUP_NO=('BB', ),
                     INST=t7,
                     NOM_CHAM='DEPL',
                     RESULTAT=RESU,
                     CRITERE=('RELATIF', 'ABSOLU'),
                     REFERENCE='SOURCE_EXTERNE',
                     VALE_CALC=(-1.1762997769294E-03, ),
                     VALE_REFE=(val_exp[2*14]*0.7, ),
                     PRECISION=0.05,),
                  _F(NOM_CMP='DX',
                     GROUP_NO=('BB', ),
                     INST=t8,
                     NOM_CHAM='DEPL',
                     RESULTAT=RESU,
                     CRITERE=('RELATIF', 'ABSOLU'),
                     REFERENCE='SOURCE_EXTERNE',
                     VALE_CALC=(1.9666893685198E-03, ),
                     VALE_REFE=(val_exp[2*602]*0.7, ),
                     PRECISION=0.01,),
                  _F(NOM_CMP='DX',
                     GROUP_NO=('BB', ),
                     INST=t9,
                     NOM_CHAM='DEPL',
                     RESULTAT=RESU,
                     CRITERE=('RELATIF', 'ABSOLU'),
                     REFERENCE='SOURCE_EXTERNE',
                     VALE_CALC=(-1.4803553050929E-03 , ),
                     VALE_REFE=(val_exp[2*1]*0.7, ),
                     PRECISION=0.08,),
                  _F(NOM_CMP='DX',
                     GROUP_NO=('BB', ),
                     INST=t10,
                     NOM_CHAM='DEPL',
                     RESULTAT=RESU,
                     CRITERE=('RELATIF', 'ABSOLU'),
                     REFERENCE='SOURCE_EXTERNE',
                     VALE_CALC=(2.0309820028114E-03, ),
                     VALE_REFE=(val_exp[2*604]*0.7, ),
                     PRECISION=0.025,),),);

#CALC_CHAMP(reuse=RESU,RESULTAT=RESU,FORCE = ('FORC_NODA'));

#tb_f=CREA_TABLE(RESU=_F(TOUT_CMP='OUI',
#                RESULTAT=RESU,
#                NOM_CHAM='FORC_NODA',
#                GROUP_MA='B',),);

#tb_db=CREA_TABLE(RESU=_F(TOUT_CMP='OUI',
#                         RESULTAT=RESU,
#                         NOM_CHAM='DEPL',
#                         GROUP_NO ='BB',),);

#DX=tb_db.EXTR_TABLE().values()['DX']
#table_f = tb_f.EXTR_TABLE().values()
#FX=[]
#for i in range(len(table_f['DX'])/3):
#    FX.append(table_f['DX'][i*3]+table_f['DX'][i*3+1]+table_f['DX'][i*3+2])

#for i in range(len(FX)):
#    print DX[i], FX[i]

FIN()
