# TITRE POUTRE CONSOLE SOUMISE A UN EFFORT TRANCHANT
# ======================================================================
# COPYRIGHT (C) 1991 - 2012  EDF R&D                  WWW.CODE-ASTER.ORG
# THIS PROGRAM IS FREE SOFTWARE; YOU CAN REDISTRIBUTE IT AND/OR MODIFY
# IT UNDER THE TERMS OF THE GNU GENERAL PUBLIC LICENSE AS PUBLISHED BY
# THE FREE SOFTWARE FOUNDATION; EITHER VERSION 2 OF THE LICENSE, OR
# (AT YOUR OPTION) ANY LATER VERSION.
#
# THIS PROGRAM IS DISTRIBUTED IN THE HOPE THAT IT WILL BE USEFUL, BUT
# WITHOUT ANY WARRANTY; WITHOUT EVEN THE IMPLIED WARRANTY OF
# MERCHANTABILITY OR FITNESS FOR A PARTICULAR PURPOSE. SEE THE GNU
# GENERAL PUBLIC LICENSE FOR MORE DETAILS.
#
# YOU SHOULD HAVE RECEIVED A COPY OF THE GNU GENERAL PUBLIC LICENSE
# ALONG WITH THIS PROGRAM; IF NOT, WRITE TO EDF R&D CODE_ASTER,
#    1 AVENUE DU GENERAL DE GAULLE, 92141 CLAMART CEDEX, FRANCE.
# ======================================================================
# ELEMENT SHB6 - V.D TRINH 2009

#
DEBUT(CODE=_F(
              NIV_PUB_WEB='INTERNET',
              VISU_EFICAS='OUI',),);

MAIL=LIRE_MAILLAGE(FORMAT='MED',);

MAIL=MODI_MAILLAGE(reuse =MAIL,
                   MAILLAGE=MAIL,
                   ORIE_SHB=_F(GROUP_MA='VOL2',),);

MODMECA=AFFE_MODELE(MAILLAGE=MAIL,
                    AFFE=_F(TOUT='OUI',
                            PHENOMENE='MECANIQUE',
                            MODELISATION='SHB',),);

MAT=DEFI_MATERIAU(ELAS=_F(E=1.2E+6,
                          NU=0.,),);

CHM=AFFE_MATERIAU(MAILLAGE=MAIL,
                  AFFE=_F(TOUT='OUI',
                          MATER=MAT,),);

CHARGT=AFFE_CHAR_MECA(MODELE=MODMECA,
                      DDL_IMPO=_F(GROUP_MA='SS3',
                                  DX=0.0,
                                  DY=0.0,
                                  DZ=0.0,),
                      FORCE_NODALE=_F(GROUP_NO=('P2','P3','P6','P7',),
                                      FZ=1.,),);

LISTPILO=DEFI_LIST_REEL(DEBUT=0.0,
                        INTERVALLE=_F(JUSQU_A=6.7,
                                      NOMBRE=67,),);

NONLIN=STAT_NON_LINE(MODELE=MODMECA,
                     CHAM_MATER=CHM,
                     EXCIT=_F(CHARGE=CHARGT,
                              TYPE_CHARGE='FIXE_PILO',),
                     COMPORTEMENT=_F(RELATION='ELAS',
                                  DEFORMATION='GROT_GDEP',
                                  TOUT='OUI',),
                    INCREMENT=_F(LIST_INST=LISTPILO,),
                     NEWTON=_F(MATRICE='TANGENTE',),
                     PILOTAGE=_F(TYPE='DDL_IMPO',
                                 COEF_MULT=1.0,
                                 GROUP_NO='P2',
                                 NOM_CMP='DZ',),
                     CONVERGENCE=_F(RESI_GLOB_RELA=0.0000001,
                                    ITER_GLOB_MAXI=50,),);

TABDZ=POST_RELEVE_T(ACTION=_F(INTITULE='F',
                              GROUP_NO='P2',
                              RESULTAT=NONLIN,
                              NOM_CHAM='DEPL',
                              TOUT_ORDRE='OUI',
                              NOM_CMP='DZ',
                              OPERATION='EXTRACTION',),);

FDZ=RECU_FONCTION(TABLE=TABDZ,
                  PARA_X='INST',
                  PARA_Y='DZ',);

FETA=RECU_FONCTION(RESULTAT=NONLIN,
                   NOM_PARA_RESU='ETA_PILOTAGE',
                   INTERPOL='LIN',
                   PROL_GAUCHE='CONSTANT',);

IMPR_FONCTION(UNITE=8,
            FORMAT='TABLEAU',
            COURBE=(_F(FONCTION=FDZ,),
                    _F(FONCTION=FETA,),),);

# solution de reference de SZE K.Y et al.

REFEZ=DEFI_FONCTION(NOM_PARA='INST',VALE=(0.,0.,
                          0.663,0.05,
                          1.309,0.1,
                          1.922,0.15,
                          2.493,0.2,
                          3.015,0.25,
                          3.488,0.3,
                          3.912,0.35,
                          4.292,0.4,
                          4.631,0.45,
                          4.933,0.5,
                          5.202,0.55,
                          5.444,0.6,
                          5.660,0.65,
                          5.885,0.7,
                          6.031,0.75,
                          6.190,0.8,
                          6.335,0.85,
                          6.467,0.9,
                          6.588,0.95,
                          6.698,1.,
                          ),INTERPOL='LIN',PROL_DROITE='CONSTANT',PROL_GAUCHE='CONSTANT',);


IMPR_FONCTION(UNITE=8,
            FORMAT='TABLEAU',
            COURBE=(_F(FONCTION=REFEZ,),
                    _F(FONCTION=FETA,),),);

DIFFZ=CALC_FONCTION(COMB=(
                          _F(  FONCTION = FETA, COEF =  1.),
                          _F(  FONCTION = REFEZ, COEF = -1.),
                          ) )

IMPR_FONCTION(UNITE=8,
            FORMAT='TABLEAU',
            COURBE=(_F(FONCTION=DIFFZ,),),);

MAXREFEZ=INFO_FONCTION( MAX=_F(  FONCTION = REFEZ)    )

IMPR_TABLE(TABLE=MAXREFEZ)


# COMPARAISON A LA SOLUTION DE REFERENCE

TEST_FONCTION(VALEUR=(_F(VALE_CALC=0.00148738728845,
                         VALE_REFE=0.0,
                         CRITERE='ABSOLU',
                         VALE_PARA=0.66300000000000003,
                         REFERENCE='SOURCE_EXTERNE',
                         PRECISION=1.0,
                         FONCTION=DIFFZ,),
                      _F(VALE_CALC=0.0029770620616,
                         VALE_REFE=0.0,
                         CRITERE='ABSOLU',
                         VALE_PARA=1.3089999999999999,
                         REFERENCE='SOURCE_EXTERNE',
                         PRECISION=1.0,
                         FONCTION=DIFFZ,),
                      _F(VALE_CALC=0.00438080409894,
                         VALE_REFE=0.0,
                         CRITERE='ABSOLU',
                         VALE_PARA=1.9219999999999999,
                         REFERENCE='SOURCE_EXTERNE',
                         PRECISION=1.0,
                         FONCTION=DIFFZ,),
                      _F(VALE_CALC=0.00579283468458,
                         VALE_REFE=0.0,
                         CRITERE='ABSOLU',
                         VALE_PARA=2.4929999999999999,
                         REFERENCE='SOURCE_EXTERNE',
                         PRECISION=1.0,
                         FONCTION=DIFFZ,),
                      _F(VALE_CALC=0.0071026741253,
                         VALE_REFE=0.0,
                         CRITERE='ABSOLU',
                         VALE_PARA=3.0150000000000001,
                         REFERENCE='SOURCE_EXTERNE',
                         PRECISION=1.0,
                         FONCTION=DIFFZ,),
                      _F(VALE_CALC=0.00843191074651,
                         VALE_REFE=0.0,
                         CRITERE='ABSOLU',
                         VALE_PARA=3.488,
                         REFERENCE='SOURCE_EXTERNE',
                         PRECISION=1.0,
                         FONCTION=DIFFZ,),
                      _F(VALE_CALC=0.00962848832589,
                         VALE_REFE=0.0,
                         CRITERE='ABSOLU',
                         VALE_PARA=3.9119999999999999,
                         REFERENCE='SOURCE_EXTERNE',
                         PRECISION=1.0,
                         FONCTION=DIFFZ,),
                      _F(VALE_CALC=0.0108966357711,
                         VALE_REFE=0.0,
                         CRITERE='ABSOLU',
                         VALE_PARA=4.2919999999999998,
                         REFERENCE='SOURCE_EXTERNE',
                         PRECISION=1.0,
                         FONCTION=DIFFZ,),
                      _F(VALE_CALC=0.0121588744426,
                         VALE_REFE=0.0,
                         CRITERE='ABSOLU',
                         VALE_PARA=4.6310000000000002,
                         REFERENCE='SOURCE_EXTERNE',
                         PRECISION=1.0,
                         FONCTION=DIFFZ,),
                      _F(VALE_CALC=0.0132673389112,
                         VALE_REFE=0.0,
                         CRITERE='ABSOLU',
                         VALE_PARA=4.9329999999999998,
                         REFERENCE='SOURCE_EXTERNE',
                         PRECISION=1.0,
                         FONCTION=DIFFZ,),
                      _F(VALE_CALC=0.0140811144202,
                         VALE_REFE=0.0,
                         CRITERE='ABSOLU',
                         VALE_PARA=5.202,
                         REFERENCE='SOURCE_EXTERNE',
                         PRECISION=1.0,
                         FONCTION=DIFFZ,),
                      _F(VALE_CALC=0.0152824774837,
                         VALE_REFE=0.0,
                         CRITERE='ABSOLU',
                         VALE_PARA=5.444,
                         REFERENCE='SOURCE_EXTERNE',
                         PRECISION=1.0,
                         FONCTION=DIFFZ,),
                      _F(VALE_CALC=0.0160433121246,
                         VALE_REFE=0.0,
                         CRITERE='ABSOLU',
                         VALE_PARA=5.6600000000000001,
                         REFERENCE='SOURCE_EXTERNE',
                         PRECISION=1.0,
                         FONCTION=DIFFZ,),
                      _F(VALE_CALC=0.0251049454014,
                         VALE_REFE=0.0,
                         CRITERE='ABSOLU',
                         VALE_PARA=5.8849999999999998,
                         REFERENCE='SOURCE_EXTERNE',
                         PRECISION=1.0,
                         FONCTION=DIFFZ,),
                      _F(VALE_CALC=0.0176282919818,
                         VALE_REFE=0.0,
                         CRITERE='ABSOLU',
                         VALE_PARA=6.0309999999999997,
                         REFERENCE='SOURCE_EXTERNE',
                         PRECISION=1.0,
                         FONCTION=DIFFZ,),
                      _F(VALE_CALC=0.0180346467598,
                         VALE_REFE=0.0,
                         CRITERE='ABSOLU',
                         VALE_PARA=6.1900000000000004,
                         REFERENCE='SOURCE_EXTERNE',
                         PRECISION=1.0,
                         FONCTION=DIFFZ,),
                      _F(VALE_CALC=0.0188167113802,
                         VALE_REFE=0.0,
                         CRITERE='ABSOLU',
                         VALE_PARA=6.335,
                         REFERENCE='SOURCE_EXTERNE',
                         PRECISION=1.0,
                         FONCTION=DIFFZ,),
                      _F(VALE_CALC=0.0192791304505,
                         VALE_REFE=0.0,
                         CRITERE='ABSOLU',
                         VALE_PARA=6.4669999999999996,
                         REFERENCE='SOURCE_EXTERNE',
                         PRECISION=1.0,
                         FONCTION=DIFFZ,),
                      _F(VALE_CALC=0.0196033244343,
                         VALE_REFE=0.0,
                         CRITERE='ABSOLU',
                         VALE_PARA=6.5880000000000001,
                         REFERENCE='SOURCE_EXTERNE',
                         PRECISION=1.0,
                         FONCTION=DIFFZ,),
                      _F(VALE_CALC=0.0193781895908,
                         VALE_REFE=0.0,
                         CRITERE='ABSOLU',
                         VALE_PARA=6.6980000000000004,
                         REFERENCE='SOURCE_EXTERNE',
                         PRECISION=1.0,
                         FONCTION=DIFFZ,),
                      ),
              )

# RECHERCHE DE LA VALEUR MAXIMUM DE LA VALEUR ABSOLUE DE LA FONCTION DE REFERENCE

ABSREFEZ = CALC_FONCTION( ABS=_F(  FONCTION = REFEZ)    )
MXREFEZ  = INFO_FONCTION( MAX=_F(  FONCTION = ABSREFEZ)    )
IMPR_TABLE(TABLE=MXREFEZ)

# RECHERCHE DE LA VALEUR MAXIMUM DE LA VALEUR ABSOLUE DE LA DIFFERENCE
# ENTRE LA FONCTION REFEX ET LA FONCTION FETA (RESULTATS ASTER)

ABSDIFFZ  = CALC_FONCTION( ABS=_F(  FONCTION = DIFFZ)    )
MXDIFFZ   = INFO_FONCTION( MAX=_F(  FONCTION = ABSDIFFZ)    )
IMPR_TABLE(TABLE=MXDIFFZ)

TEST_TABLE(REFERENCE='ANALYTIQUE',
           PRECISION=1.E-3,
           VALE_CALC=1.000000000,
           VALE_REFE=1.0,
           NOM_PARA='TOUTRESU',
           TABLE=MXREFEZ,
           FILTRE=(_F(NOM_PARA='FONCTION',
                      VALE_K='ABSREFEZ',),
                   _F(NOM_PARA='TYPE',
                      VALE_K='MAXI',),
                   ),
           )

TEST_TABLE(REFERENCE='ANALYTIQUE',
           PRECISION=1.E-3,
           VALE_CALC=0.025104945,
           VALE_REFE=0.025100000000000001,
           NOM_PARA='ETA_PILO',
           TABLE=MXDIFFZ,
           FILTRE=(_F(NOM_PARA='FONCTION',
                      VALE_K='ABSDIFFZ',),
                   _F(NOM_PARA='TYPE',
                      VALE_K='MAXI',),
                   ),
           )

TABDX=POST_RELEVE_T(ACTION=_F(INTITULE='F',
                              GROUP_NO='P2',
                              RESULTAT=NONLIN,
                              NOM_CHAM='DEPL',
                              TOUT_ORDRE='OUI',
                              NOM_CMP='DX',
                              OPERATION='EXTRACTION',),);

FDX1=RECU_FONCTION(TABLE=TABDX,
                  PARA_X='INST',
                  PARA_Y='DX',);

FDX=CALC_FONCTION(COMB=_F(FONCTION=FDX1,
                          COEF=-1.,),);

IMPR_FONCTION(UNITE=8,
            FORMAT='TABLEAU',
            COURBE=(_F(FONCTION=FDX,),
                    _F(FONCTION=FETA,),),);

# solution de reference de SZE K.Y et al.

REFEX=DEFI_FONCTION(NOM_PARA='INST',VALE=(0.,0.,
                          0.026,0.05,
                          0.103,0.1,
                          0.224,0.15,
                          0.381,0.2,
                          0.563,0.25,
                          0.763,0.3,
                          0.971,0.35,
                          1.184,0.4,
                          1.396,0.45,
                          1.604,0.5,
                          1.807,0.55,
                          2.002,0.6,
                          2.190,0.65,
                          2.370,0.7,
                          2.541,0.75,
                          2.705,0.8,
                          2.861,0.85,
                          3.010,0.9,
                          3.151,0.95,
                          3.286,1.,
                          ),INTERPOL='LIN',PROL_DROITE='CONSTANT',PROL_GAUCHE='CONSTANT',);

DIFFX=CALC_FONCTION(COMB=(
                          _F(  FONCTION = FETA, COEF =  1.),
                          _F(  FONCTION = REFEX, COEF = -1.),
                          ) )

IMPR_FONCTION(UNITE=8,
            FORMAT='TABLEAU',
            COURBE=(_F(FONCTION=DIFFX,),),);

MAXREFEX=INFO_FONCTION( MAX=_F(  FONCTION = REFEX)    )

IMPR_TABLE(TABLE=MAXREFEX)


# COMPARAISON A LA SOLUTION DE REFERENCE

TEST_FONCTION(VALEUR=(_F(VALE_CALC=-0.0479894215272,
                         VALE_REFE=0.0,
                         CRITERE='ABSOLU',
                         VALE_PARA=0.025999999999999999,
                         REFERENCE='SOURCE_EXTERNE',
                         PRECISION=1.0,
                         FONCTION=DIFFX,),
                      _F(VALE_CALC=-0.0920348944693,
                         VALE_REFE=0.0,
                         CRITERE='ABSOLU',
                         VALE_PARA=0.10299999999999999,
                         REFERENCE='SOURCE_EXTERNE',
                         PRECISION=1.0,
                         FONCTION=DIFFX,),
                      _F(VALE_CALC=-0.132670947926,
                         VALE_REFE=0.0,
                         CRITERE='ABSOLU',
                         VALE_PARA=0.224,
                         REFERENCE='SOURCE_EXTERNE',
                         PRECISION=1.0,
                         FONCTION=DIFFX,),
                      _F(VALE_CALC=-0.170498872209,
                         VALE_REFE=0.0,
                         CRITERE='ABSOLU',
                         VALE_PARA=0.38100000000000001,
                         REFERENCE='SOURCE_EXTERNE',
                         PRECISION=1.0,
                         FONCTION=DIFFX,),
                      _F(VALE_CALC=-0.206331747836,
                         VALE_REFE=0.0,
                         CRITERE='ABSOLU',
                         VALE_PARA=0.56299999999999994,
                         REFERENCE='SOURCE_EXTERNE',
                         PRECISION=1.0,
                         FONCTION=DIFFX,),
                      _F(VALE_CALC=-0.240662059603,
                         VALE_REFE=0.0,
                         CRITERE='ABSOLU',
                         VALE_PARA=0.76300000000000001,
                         REFERENCE='SOURCE_EXTERNE',
                         PRECISION=1.0,
                         FONCTION=DIFFX,),
                      _F(VALE_CALC=-0.274210859575,
                         VALE_REFE=0.0,
                         CRITERE='ABSOLU',
                         VALE_PARA=0.97099999999999997,
                         REFERENCE='SOURCE_EXTERNE',
                         PRECISION=1.0,
                         FONCTION=DIFFX,),
                      _F(VALE_CALC=-0.307153406631,
                         VALE_REFE=0.0,
                         CRITERE='ABSOLU',
                         VALE_PARA=1.1839999999999999,
                         REFERENCE='SOURCE_EXTERNE',
                         PRECISION=1.0,
                         FONCTION=DIFFX,),
                      _F(VALE_CALC=-0.339912733589,
                         VALE_REFE=0.0,
                         CRITERE='ABSOLU',
                         VALE_PARA=1.3959999999999999,
                         REFERENCE='SOURCE_EXTERNE',
                         PRECISION=1.0,
                         FONCTION=DIFFX,),
                      _F(VALE_CALC=-0.372684847658,
                         VALE_REFE=0.0,
                         CRITERE='ABSOLU',
                         VALE_PARA=1.6040000000000001,
                         REFERENCE='SOURCE_EXTERNE',
                         PRECISION=1.0,
                         FONCTION=DIFFX,),
                      _F(VALE_CALC=-0.405521147273,
                         VALE_REFE=0.0,
                         CRITERE='ABSOLU',
                         VALE_PARA=1.8069999999999999,
                         REFERENCE='SOURCE_EXTERNE',
                         PRECISION=1.0,
                         FONCTION=DIFFX,),
                      _F(VALE_CALC=-0.438661796843,
                         VALE_REFE=0.0,
                         CRITERE='ABSOLU',
                         VALE_PARA=2.0019999999999998,
                         REFERENCE='SOURCE_EXTERNE',
                         PRECISION=1.0,
                         FONCTION=DIFFX,),
                      _F(VALE_CALC=-0.472002996262,
                         VALE_REFE=0.0,
                         CRITERE='ABSOLU',
                         VALE_PARA=2.1899999999999999,
                         REFERENCE='SOURCE_EXTERNE',
                         PRECISION=1.0,
                         FONCTION=DIFFX,),
                      _F(VALE_CALC=-0.505634427829,
                         VALE_REFE=0.0,
                         CRITERE='ABSOLU',
                         VALE_PARA=2.3700000000000001,
                         REFERENCE='SOURCE_EXTERNE',
                         PRECISION=1.0,
                         FONCTION=DIFFX,),
                      _F(VALE_CALC=-0.539668852997,
                         VALE_REFE=0.0,
                         CRITERE='ABSOLU',
                         VALE_PARA=2.5409999999999999,
                         REFERENCE='SOURCE_EXTERNE',
                         PRECISION=1.0,
                         FONCTION=DIFFX,),
                      _F(VALE_CALC=-0.573948902758,
                         VALE_REFE=0.0,
                         CRITERE='ABSOLU',
                         VALE_PARA=2.7050000000000001,
                         REFERENCE='SOURCE_EXTERNE',
                         PRECISION=1.0,
                         FONCTION=DIFFX,),
                      _F(VALE_CALC=-0.608535687267,
                         VALE_REFE=0.0,
                         CRITERE='ABSOLU',
                         VALE_PARA=2.8610000000000002,
                         REFERENCE='SOURCE_EXTERNE',
                         PRECISION=1.0,
                         FONCTION=DIFFX,),
                      _F(VALE_CALC=-0.643416737455,
                         VALE_REFE=0.0,
                         CRITERE='ABSOLU',
                         VALE_PARA=3.0099999999999998,
                         REFERENCE='SOURCE_EXTERNE',
                         PRECISION=1.0,
                         FONCTION=DIFFX,),
                      _F(VALE_CALC=-0.678658645902,
                         VALE_REFE=0.0,
                         CRITERE='ABSOLU',
                         VALE_PARA=3.1509999999999998,
                         REFERENCE='SOURCE_EXTERNE',
                         PRECISION=1.0,
                         FONCTION=DIFFX,),
                      _F(VALE_CALC=-0.714143507268,
                         VALE_REFE=0.0,
                         CRITERE='ABSOLU',
                         VALE_PARA=3.286,
                         REFERENCE='SOURCE_EXTERNE',
                         PRECISION=1.0,
                         FONCTION=DIFFX,),
                      ),
              )

# RECHERCHE DE LA VALEUR MAXIMUM DE LA VALEUR ABSOLUE DE LA FONCTION DE REFERENCE

ABSREFEX = CALC_FONCTION( ABS=_F(  FONCTION = REFEX)    )
MXREFEX  = INFO_FONCTION( MAX=_F(  FONCTION = ABSREFEX)    )
IMPR_TABLE(TABLE=MXREFEX)

# RECHERCHE DE LA VALEUR MAXIMUM DE LA VALEUR ABSOLUE DE LA DIFFERENCE
# ENTRE LA FONCTION REFEX ET LA FONCTION FETA (RESULTATS ASTER)

ABSDIFFX  = CALC_FONCTION( ABS=_F(  FONCTION = DIFFX)    )
MXDIFFX   = INFO_FONCTION( MAX=_F(  FONCTION = ABSDIFFX)    )
IMPR_TABLE(TABLE=MXDIFFX)

TEST_TABLE(REFERENCE='ANALYTIQUE',
           PRECISION=1.E-3,
           VALE_CALC=1.000000000,
           VALE_REFE=1.0,
           NOM_PARA='TOUTRESU',
           TABLE=MXREFEX,
           FILTRE=(_F(NOM_PARA='FONCTION',
                      VALE_K='ABSREFEX',),
                   _F(NOM_PARA='TYPE',
                      VALE_K='MAXI',),
                   ),
           )

TEST_TABLE(REFERENCE='ANALYTIQUE',
           PRECISION=1.E-3,

           VALE_CALC=0.714143507,
           VALE_REFE=0.71399999999999997,
           NOM_PARA='ETA_PILO',
           TABLE=MXDIFFX,
           FILTRE=(_F(NOM_PARA='FONCTION',
                      VALE_K='ABSDIFFX',),
                   _F(NOM_PARA='TYPE',
                      VALE_K='MAXI',),
                   ),
           )

# ON TRACE LES COURBES RESULTATS ASTER

IMPR_FONCTION(FORMAT='XMGRACE',
              UNITE=25,
              COURBE=(_F(FONC_X=FDZ,FONC_Y=FETA,
                         LEGENDE='ASTER_DZ',),
                      _F(FONCTION=REFEZ,
                         LEGENDE='REFERENCE_DZ',),
                      _F(FONC_X=FDX,FONC_Y=FETA,
                         LEGENDE='ASTER_DX',),
                      _F(FONCTION=REFEX,
                         LEGENDE='REFERENCE_DX',),
                      ),
              BORNE_X=(0.0,8.0,),
              BORNE_Y=(0.0,1.0,),
              GRILLE_X=0.5,
              GRILLE_Y=0.05,
              LEGENDE_X='Instant',
              LEGENDE_Y='P/Pmax',);



FIN();
