# MODIF  DATE 10/10/2012   AUTEUR COURTOIS M.COURTOIS 
# TITRE COMPORTEMENT NON LINEAIRE D'UNE NAPPE D'ARMATURES SELON X  SOUS CHARGEMENT THERMIQUE. GRILLE_PINTO_MEN
# ssns100h.para = tps_job 60 mem_job 512Mo ncpus 1 liste_test S
#            CONFIGURATION MANAGEMENT OF EDF VERSION
# ======================================================================
# COPYRIGHT (C) 1991 - 2012  EDF R&D                  WWW.CODE-ASTER.ORG
# THIS PROGRAM IS FREE SOFTWARE; YOU CAN REDISTRIBUTE IT AND/OR MODIFY
# IT UNDER THE TERMS OF THE GNU GENERAL PUBLIC LICENSE AS PUBLISHED BY
# THE FREE SOFTWARE FOUNDATION; EITHER VERSION 2 OF THE LICENSE, OR
# (AT YOUR OPTION) ANY LATER VERSION.
#
# THIS PROGRAM IS DISTRIBUTED IN THE HOPE THAT IT WILL BE USEFUL, BUT
# WITHOUT ANY WARRANTY; WITHOUT EVEN THE IMPLIED WARRANTY OF
# MERCHANTABILITY OR FITNESS FOR A PARTICULAR PURPOSE. SEE THE GNU
# GENERAL PUBLIC LICENSE FOR MORE DETAILS.
#
# YOU SHOULD HAVE RECEIVED A COPY OF THE GNU GENERAL PUBLIC LICENSE
# ALONG WITH THIS PROGRAM; IF NOT, WRITE TO EDF R&D CODE_ASTER,
#    1 AVENUE DU GENERAL DE GAULLE, 92141 CLAMART CEDEX, FRANCE.
# ======================================================================
#      D'ARMATURES

DEBUT(CODE=_F(NOM='SSNS100H',NIV_PUB_WEB='INTERNET'),DEBUG=_F(SDVERI='OUI'))

#-----------------------------------------------------------------------
# VALIDATION DU MODELE GRILLE_PINTO_MEN EN PLASTICITE
# TEMPERATRE IMPOSEE PAR NAPPE PAS ARAMATURE Y
#-----------------------------------------------------------------------

MAIL=LIRE_MAILLAGE(   )

#
# -----------------------------------------------------
# DEFINITION DES MATERIAUX
# -----------------------------------------------------
#

ACIER=DEFI_MATERIAU(   ELAS=_F(  E = 2.E11,
                                    NU = 0.3,
                                    ALPHA = 1.E-5,         ),
                  PINTO_MENEGOTTO=_F(  SY = 2.E8,
                                    EPSI_ULTM = 3.E-2,
                                    SIGM_ULTM = 2.58E8,
                                    EPSP_HARD = 0.0023,
                                    R_PM = 20.0,
                                    EP_SUR_E = 0.01,
                                    A1_PM = 18.5,
                                    A2_PM = 0.15,
                                    ELAN = 4.9,
                                    A6_PM = 620.0,
                                    C_PM = 0.5,
                                    A_PM = 0.008,          )
                           )

#
# -------------------------------------------------
# AFFECTATION DES MATERIAUX
# -------------------------------------------------
#
CHMAT=AFFE_MATERIAU(    MAILLAGE=MAIL,
                          AFFE=_F(  GROUP_MA = 'GEOB',
                                 MATER = ACIER,

                               )
                      )

#
# -------------------------------------------------
# AFFECTATION DES MODELES
# -------------------------------------------------
#
MOD=AFFE_MODELE(    MAILLAGE=MAIL,     VERIF='MAILLE',
                         AFFE=_F(  GROUP_MA = 'GEOB',
#                      AFFE : ( TOUT :  'OUI'
                               PHENOMENE = 'MECANIQUE',
                               MODELISATION = 'GRILLE_EXCENTRE',
                             )
                      )

# -------------------------------------------------
# AFFECTATION DES CARACTERISTIQUES
# -------------------------------------------------
#
CARGR=AFFE_CARA_ELEM(    MODELE=MOD,
                       GRILLE=_F( GROUP_MA = 'GEOB',
                                SECTION = .01,
                                ANGL_REP = (0.0, 0.0,),
                                EXCENTREMENT = 0.0,
#                                COEF_RIGI_DRZ : 0.00001
                              )
                        )

# ----------------------------------------------
# CONDITIONS AUX LIMITES
# ----------------------------------------------
#
CL=AFFE_CHAR_MECA(
                 MODELE=MOD,DDL_IMPO=(
               _F(  NOEUD = 'NO1',
                          DX = 0.,
                          DY = 0.,
                          DZ = 0.,
                          DRX = 0.,
                          DRY = 0.,
                          DRZ = 0.,
                        ),
               _F(  NOEUD = 'NO2',
#                          DX  : 0.
                          DY = 0.,
                          DZ = 0.,
                          DRX = 0.,
                          DRY = 0.,
                          DRZ = 0.,
                        ),
               _F(  NOEUD = 'NO3',
#                          DX  : 0.
                          DY = 0.,
                          DZ = 0.,
                          DRX = 0.,
                          DRY = 0.,
                          DRZ = 0.,
                        ),
               _F(  NOEUD = 'NO4',
                          DX = 0.,
                          DY = 0.,
                          DZ = 0.,
                          DRX = 0.,
                          DRY = 0.,
                          DRZ = 0.,
                        ))
                     )

# ----------------------------------------------
# CHARGEMENT NO 1
# ----------------------------------------------
#
CH1=AFFE_CHAR_MECA(
                     MODELE=MOD,
               FORCE_NODALE=_F(  NOEUD = ( 'NO2', 'NO3', ),
                              FX = 1.,
                            )
                      )

#
# ----------------------------------------------
# CALCUL
# ----------------------------------------------
#

LINST1=DEFI_LIST_REEL(   DEBUT=0.,INTERVALLE=(

                                _F(  JUSQU_A = 0.001,   NOMBRE = 1,   ),
                                _F(  JUSQU_A = 0.0023,  NOMBRE = 1,   ),
                                _F(  JUSQU_A = 0.03,    NOMBRE = 1,   ),
                                _F(  JUSQU_A = 0.2,     NOMBRE = 1,   ),
                                _F(  JUSQU_A = 0.4,     NOMBRE = 1,   ),
                                _F(  JUSQU_A = 6.4,     NOMBRE = 1,   ),
                                _F(  JUSQU_A = 7.92,    NOMBRE = 1,   ),
                                _F(  JUSQU_A = 17.,     NOMBRE = 1,   ),
                                _F(  JUSQU_A = 19.,     NOMBRE = 1,   ),
                                _F(  JUSQU_A = 20.,     NOMBRE = 1,   ),
                                _F(  JUSQU_A = 21.,     NOMBRE = 1,   ),
                                _F(  JUSQU_A = 22.,     NOMBRE = 1,   ),
                                _F(  JUSQU_A = 25.,     NOMBRE = 1,   ),
                                _F(  JUSQU_A = 50.,     NOMBRE = 1,   ))
                         )

#
# COEF_MULT = INSTANT/DEPLACEMENT
#

LEDEP=STAT_NON_LINE(
                            MODELE=MOD,
                        CHAM_MATER=CHMAT,
                         CARA_ELEM=CARGR,EXCIT=(
                             _F(
                CHARGE = CL,
                ),
                             _F(
                CHARGE = CH1,
                TYPE_CHARGE = 'FIXE_PILO',
                )),
                         COMP_INCR=_F(
                RELATION = 'GRILLE_PINTO_MEN',
                ),
                         INCREMENT=_F(
                LIST_INST = LINST1,
                NUME_INST_FIN = 1,
                ),
                            NEWTON=_F(
                MATRICE = 'TANGENTE',
                REAC_ITER = 7,
                ),
                           SOLVEUR=_F(
                METHODE = 'LDLT',
                ),
                       CONVERGENCE=_F(
                RESI_GLOB_MAXI = 1.E-4,
                ITER_GLOB_MAXI = 50,
                ),
                          PILOTAGE=_F(
                TYPE = 'DDL_IMPO',
                NOEUD = 'NO3',
                NOM_CMP = 'DX',
                COEF_MULT = 1.0,
                )
              )

LEDEP=STAT_NON_LINE( reuse=LEDEP,
                            MODELE=MOD,
                        CHAM_MATER=CHMAT,
                         CARA_ELEM=CARGR,
                         ETAT_INIT=_F(
                EVOL_NOLI = LEDEP,
                NUME_ORDRE = 1,
                ),EXCIT=(
                             _F(
                CHARGE = CL,
                ),
                             _F(
                CHARGE = CH1,
                TYPE_CHARGE = 'FIXE_PILO',
                )),
                         COMP_INCR=_F(
                RELATION = 'GRILLE_PINTO_MEN',
                ),
                         INCREMENT=_F(
                LIST_INST = LINST1,
                NUME_INST_INIT = 1,
                NUME_INST_FIN = 2,
                ),
                            NEWTON=_F(
                MATRICE = 'TANGENTE',
                REAC_ITER = 7,
                ),
                           SOLVEUR=_F(
                METHODE = 'LDLT',
                ),
                       CONVERGENCE=_F(
                RESI_GLOB_MAXI = 1.E-4,
                ITER_GLOB_MAXI = 50,
                ),
                          PILOTAGE=_F(
                TYPE = 'DDL_IMPO',
                NOEUD = 'NO3',
                NOM_CMP = 'DX',
                COEF_MULT = 1.0,
                )
              )

LEDEP=STAT_NON_LINE( reuse=LEDEP,
                            MODELE=MOD,
                        CHAM_MATER=CHMAT,
                         CARA_ELEM=CARGR,
                         ETAT_INIT=_F(
                EVOL_NOLI = LEDEP,
                NUME_ORDRE = 2,
                ),EXCIT=(
                             _F(
                CHARGE = CL,
                ),
                             _F(
                CHARGE = CH1,
                TYPE_CHARGE = 'FIXE_PILO',
                )),
                         COMP_INCR=_F(
                RELATION = 'GRILLE_PINTO_MEN',
                ),
                         INCREMENT=_F(
                LIST_INST = LINST1,
                NUME_INST_INIT = 2,
                NUME_INST_FIN = 3,
                ),
                            NEWTON=_F(
                MATRICE = 'TANGENTE',
                REAC_ITER = 7,
                ),
                           SOLVEUR=_F(
                METHODE = 'LDLT',
                ),
                       CONVERGENCE=_F(
                RESI_GLOB_MAXI = 1.E-4,
                ITER_GLOB_MAXI = 50,
                ),
                          PILOTAGE=_F(
                TYPE = 'DDL_IMPO',
                NOEUD = 'NO3',
                NOM_CMP = 'DX',
                COEF_MULT = 1.0,
                )
              )

LEDEP=STAT_NON_LINE( reuse=LEDEP,
                            MODELE=MOD,
                        CHAM_MATER=CHMAT,
                         CARA_ELEM=CARGR,
                         ETAT_INIT=_F(
                EVOL_NOLI = LEDEP,
                NUME_ORDRE = 3,
                ),EXCIT=(
                             _F(
                CHARGE = CL,
                ),
                             _F(
                CHARGE = CH1,
                TYPE_CHARGE = 'FIXE_PILO',
                )),
                         COMP_INCR=_F(
                RELATION = 'GRILLE_PINTO_MEN',
                ),
                         INCREMENT=_F(
                LIST_INST = LINST1,
                NUME_INST_INIT = 3,
                NUME_INST_FIN = 4,
                ),
                            NEWTON=_F(
                MATRICE = 'TANGENTE',
                REAC_ITER = 7,
                ),
                           SOLVEUR=_F(
                METHODE = 'LDLT',
                ),
                       CONVERGENCE=_F(
                RESI_GLOB_MAXI = 1.E-4,
                ITER_GLOB_MAXI = 50,
                ),
                          PILOTAGE=_F(
                TYPE = 'DDL_IMPO',
                NOEUD = 'NO3',
                NOM_CMP = 'DX',
                COEF_MULT = -510.,
                )
              )

LEDEP=STAT_NON_LINE( reuse=LEDEP,
                            MODELE=MOD,
                        CHAM_MATER=CHMAT,
                         CARA_ELEM=CARGR,
                         ETAT_INIT=_F(
                EVOL_NOLI = LEDEP,
                NUME_ORDRE = 4,
                ),EXCIT=(
                             _F(
                CHARGE = CL,
                ),
                             _F(
                CHARGE = CH1,
                TYPE_CHARGE = 'FIXE_PILO',
                )),
                         COMP_INCR=_F(
                RELATION = 'GRILLE_PINTO_MEN',
                ),
                         INCREMENT=_F(
                LIST_INST = LINST1,
                NUME_INST_INIT = 4,
                NUME_INST_FIN = 5,
                ),
                            NEWTON=_F(
                MATRICE = 'TANGENTE',
                REAC_ITER = 7,
                ),
                           SOLVEUR=_F(
                METHODE = 'LDLT',
                ),
                       CONVERGENCE=_F(
                RESI_GLOB_MAXI = 1.E-4,
                ITER_GLOB_MAXI = 50,
                ),
                          PILOTAGE=_F(
                TYPE = 'DDL_IMPO',
                NOEUD = 'NO3',
                NOM_CMP = 'DX',
                COEF_MULT = -20.6896552,
                )
              )

LEDEP=STAT_NON_LINE( reuse=LEDEP,
                            MODELE=MOD,
                        CHAM_MATER=CHMAT,
                         CARA_ELEM=CARGR,
                         ETAT_INIT=_F(
                EVOL_NOLI = LEDEP,
                NUME_ORDRE = 5,
                ),EXCIT=(
                             _F(
                CHARGE = CL,
                ),
                             _F(
                CHARGE = CH1,
                TYPE_CHARGE = 'FIXE_PILO',
                )),
                         COMP_INCR=_F(
                RELATION = 'GRILLE_PINTO_MEN',
                ),
                         INCREMENT=_F(
                LIST_INST = LINST1,
                NUME_INST_INIT = 5,
                NUME_INST_FIN = 6,
                ),
                            NEWTON=_F(
                MATRICE = 'TANGENTE',
                REAC_ITER = 7,
                ),
                           SOLVEUR=_F(
                METHODE = 'LDLT',
                ),
                       CONVERGENCE=_F(
                RESI_GLOB_MAXI = 1.E-4,
                ITER_GLOB_MAXI = 50,
                ),
                          PILOTAGE=_F(
                TYPE = 'DDL_IMPO',
                NOEUD = 'NO3',
                NOM_CMP = 'DX',
                COEF_MULT = -100.,
                )
              )

LEDEP=STAT_NON_LINE( reuse=LEDEP,
                            MODELE=MOD,
                        CHAM_MATER=CHMAT,
                         CARA_ELEM=CARGR,
                         ETAT_INIT=_F(
                EVOL_NOLI = LEDEP,
                NUME_ORDRE = 6,
                ),EXCIT=(
                             _F(
                CHARGE = CL,
                ),
                             _F(
                CHARGE = CH1,
                TYPE_CHARGE = 'FIXE_PILO',
                )),
                         COMP_INCR=_F(
                RELATION = 'GRILLE_PINTO_MEN',
                ),
                         INCREMENT=_F(
                LIST_INST = LINST1,
                NUME_INST_INIT = 6,
                NUME_INST_FIN = 7,
                ),
                            NEWTON=_F(
                MATRICE = 'TANGENTE',
                REAC_ITER = 7,
                ),
                           SOLVEUR=_F(
                METHODE = 'LDLT',
                ),
                       CONVERGENCE=_F(
                RESI_GLOB_MAXI = 1.E-4,
                ITER_GLOB_MAXI = 50,
                ),
                          PILOTAGE=_F(
                TYPE = 'DDL_IMPO',
                NOEUD = 'NO3',
                NOM_CMP = 'DX',
                COEF_MULT = 217.1428571,
                )
              )

LEDEP=STAT_NON_LINE( reuse=LEDEP,
                            MODELE=MOD,
                        CHAM_MATER=CHMAT,
                         CARA_ELEM=CARGR,
                         ETAT_INIT=_F(
                EVOL_NOLI = LEDEP,
                NUME_ORDRE = 7,
                ),EXCIT=(
                             _F(
                CHARGE = CL,
                ),
                             _F(
                CHARGE = CH1,
                TYPE_CHARGE = 'FIXE_PILO',
                )),
                         COMP_INCR=_F(
                RELATION = 'GRILLE_PINTO_MEN',
                ),
                         INCREMENT=_F(
                LIST_INST = LINST1,
                NUME_INST_INIT = 7,
                NUME_INST_FIN = 8,
                ),
                            NEWTON=_F(
                MATRICE = 'TANGENTE',
                REAC_ITER = 7,
                ),
                           SOLVEUR=_F(
                METHODE = 'LDLT',
                ),
                       CONVERGENCE=_F(
                RESI_GLOB_MAXI = 1.E-4,
                ITER_GLOB_MAXI = 50,
                ),
                          PILOTAGE=_F(
                TYPE = 'DDL_IMPO',
                NOEUD = 'NO3',
                NOM_CMP = 'DX',
                COEF_MULT = 211.1627907,
                )
              )

LEDEP=STAT_NON_LINE( reuse=LEDEP,
                            MODELE=MOD,
                        CHAM_MATER=CHMAT,
                         CARA_ELEM=CARGR,
                         ETAT_INIT=_F(
                EVOL_NOLI = LEDEP,
                NUME_ORDRE = 8,
                ),EXCIT=(
                             _F(
                CHARGE = CL,
                ),
                             _F(
                CHARGE = CH1,
                TYPE_CHARGE = 'FIXE_PILO',
                )),
                         COMP_INCR=_F(
                RELATION = 'GRILLE_PINTO_MEN',
                ),
                         INCREMENT=_F(
                LIST_INST = LINST1,
                NUME_INST_INIT = 8,
                NUME_INST_FIN = 9,
                ),
                            NEWTON=_F(
                MATRICE = 'TANGENTE',
                REAC_ITER = 7,
                ),
                           SOLVEUR=_F(
                METHODE = 'LDLT',
                ),
                       CONVERGENCE=_F(
                RESI_GLOB_MAXI = 1.E-4,
                ITER_GLOB_MAXI = 50,
                ),
                          PILOTAGE=_F(
                TYPE = 'DDL_IMPO',
                NOEUD = 'NO3',
                NOM_CMP = 'DX',
                COEF_MULT = 100.,
                )
             )

LEDEP=STAT_NON_LINE( reuse=LEDEP,
                            MODELE=MOD,
                        CHAM_MATER=CHMAT,
                         CARA_ELEM=CARGR,
                         ETAT_INIT=_F(
                EVOL_NOLI = LEDEP,
                NUME_ORDRE = 9,
                ),EXCIT=(
                             _F(
                CHARGE = CL,
                ),
                             _F(
                CHARGE = CH1,
                TYPE_CHARGE = 'FIXE_PILO',
                )),
                         COMP_INCR=_F(
                RELATION = 'GRILLE_PINTO_MEN',
                ),
                         INCREMENT=_F(
                LIST_INST = LINST1,
                NUME_INST_INIT = 9,
                NUME_INST_FIN = 10,
                ),
                            NEWTON=_F(
                MATRICE = 'TANGENTE',
                REAC_ITER = 7,
                ),
                           SOLVEUR=_F(
                METHODE = 'LDLT',
                ),
                       CONVERGENCE=_F(
                RESI_GLOB_MAXI = 1.E-4,
                ITER_GLOB_MAXI = 50,
                ),
                          PILOTAGE=_F(
                TYPE = 'DDL_IMPO',
                NOEUD = 'NO3',
                NOM_CMP = 'DX',
                COEF_MULT = -5000.,
                )
              )

LEDEP=STAT_NON_LINE( reuse=LEDEP,
                            MODELE=MOD,
                        CHAM_MATER=CHMAT,
                         CARA_ELEM=CARGR,
                         ETAT_INIT=_F(
                EVOL_NOLI = LEDEP,
                NUME_ORDRE = 10,
                ),EXCIT=(
                             _F(
                CHARGE = CL,
                ),
                             _F(
                CHARGE = CH1,
                TYPE_CHARGE = 'FIXE_PILO',
                )),
                         COMP_INCR=_F(
                RELATION = 'GRILLE_PINTO_MEN',
                ),
                         INCREMENT=_F(
                LIST_INST = LINST1,
                NUME_INST_INIT = 10,
                NUME_INST_FIN = 11,
                ),
                            NEWTON=_F(
                MATRICE = 'TANGENTE',
                REAC_ITER = 7,
                ),
                           SOLVEUR=_F(
                METHODE = 'LDLT',
                ),
                       CONVERGENCE=_F(
                RESI_GLOB_MAXI = 1.E-4,
                ITER_GLOB_MAXI = 50,
                ),
                          PILOTAGE=_F(
                TYPE = 'DDL_IMPO',
                NOEUD = 'NO3',
                NOM_CMP = 'DX',
                COEF_MULT = -263.157895,
                )
              )

LEDEP=STAT_NON_LINE( reuse=LEDEP,
                            MODELE=MOD,
                        CHAM_MATER=CHMAT,
                         CARA_ELEM=CARGR,
                         ETAT_INIT=_F(
                EVOL_NOLI = LEDEP,
                NUME_ORDRE = 11,
                ),EXCIT=(
                             _F(
                CHARGE = CL,
                ),
                             _F(
                CHARGE = CH1,
                TYPE_CHARGE = 'FIXE_PILO',
                )),
                         COMP_INCR=_F(
                RELATION = 'GRILLE_PINTO_MEN',
                ),
                         INCREMENT=_F(
                LIST_INST = LINST1,
                NUME_INST_INIT = 11,
                NUME_INST_FIN = 12,
                ),
                            NEWTON=_F(
                MATRICE = 'TANGENTE',
                REAC_ITER = 7,
                ),
                           SOLVEUR=_F(
                METHODE = 'LDLT',
                ),
                       CONVERGENCE=_F(
                RESI_GLOB_MAXI = 1.E-4,
                ITER_GLOB_MAXI = 50,
                ),
                          PILOTAGE=_F(
                TYPE = 'DDL_IMPO',
                NOEUD = 'NO3',
                NOM_CMP = 'DX',
                COEF_MULT = -250.,
                )
              )

LEDEP=STAT_NON_LINE( reuse=LEDEP,
                            MODELE=MOD,
                        CHAM_MATER=CHMAT,
                         CARA_ELEM=CARGR,
                         ETAT_INIT=_F(
                EVOL_NOLI = LEDEP,
                NUME_ORDRE = 12,
                ),EXCIT=(
                             _F(
                CHARGE = CL,
                ),
                             _F(
                CHARGE = CH1,
                TYPE_CHARGE = 'FIXE_PILO',
                )),
                         COMP_INCR=_F(
                RELATION = 'GRILLE_PINTO_MEN',
                ),
                         INCREMENT=_F(
                LIST_INST = LINST1,
                NUME_INST_INIT = 12,
                NUME_INST_FIN = 13,
                ),
                            NEWTON=_F(
                MATRICE = 'TANGENTE',
                REAC_ITER = 7,
                ),
                           SOLVEUR=_F(
                METHODE = 'LDLT',
                ),
                       CONVERGENCE=_F(
                RESI_GLOB_MAXI = 1.E-4,
                ITER_GLOB_MAXI = 50,
                ),
                          PILOTAGE=_F(
                TYPE = 'DDL_IMPO',
                NOEUD = 'NO3',
                NOM_CMP = 'DX',
                COEF_MULT = 1000.,
                )
              )

LEDEP=STAT_NON_LINE( reuse=LEDEP,
                            MODELE=MOD,
                        CHAM_MATER=CHMAT,
                         CARA_ELEM=CARGR,
                         ETAT_INIT=_F(
                EVOL_NOLI = LEDEP,
                NUME_ORDRE = 13,
                ),EXCIT=(
                             _F(
                CHARGE = CL,
                ),
                             _F(
                CHARGE = CH1,
                TYPE_CHARGE = 'FIXE_PILO',
                )),
                         COMP_INCR=_F(
                RELATION = 'GRILLE_PINTO_MEN',
                ),
                         INCREMENT=_F(
                LIST_INST = LINST1,
                NUME_INST_INIT = 13,
                NUME_INST_FIN = 14,
                ),
                            NEWTON=_F(
                MATRICE = 'TANGENTE',
                REAC_ITER = 7,
                ),
                           SOLVEUR=_F(
                METHODE = 'LDLT',
                ),
                       CONVERGENCE=_F(
                RESI_GLOB_MAXI = 1.E-4,
                ITER_GLOB_MAXI = 50,
                ),
                          PILOTAGE=_F(
                TYPE = 'DDL_IMPO',
                NOEUD = 'NO3',
                NOM_CMP = 'DX',
                COEF_MULT = 1000.,
                )
              )

LEDEP=CALC_CHAMP(reuse=LEDEP,CONTRAINTE=('SIGM_ELNO'),VARI_INTERNE=('VARI_ELNO'),RESULTAT=LEDEP)


#
# -------------------------------------------------
# POST TRAITEMENT DES RESULTATS
# -------------------------------------------------
#

LEDEP=CALC_CHAMP(reuse=LEDEP,RESULTAT=LEDEP,DEFORMATION=('EPSI_ELNO'))


#
# -------------------------------------------------
# TEST DES RESULTATS
# -------------------------------------------------
#

TEST_RESU(RESU=(_F(INST=1.E-3,
                   RESULTAT=LEDEP,
                   NOM_CHAM='SIGM_ELNO',
                   NOEUD='NO2',
                   NOM_CMP='SIXX',
                   VALE_CALC= 2.00000000E+08,
                   VALE_REFE=2.E8,
                   REFERENCE='NON_DEFINI',
                   PRECISION=1.E-2,
                   MAILLE='MA1',),
                _F(INST=2.3E-3,
                   RESULTAT=LEDEP,
                   NOM_CHAM='SIGM_ELNO',
                   NOEUD='NO2',
                   NOM_CMP='SIXX',
                   VALE_CALC= 2.00000000E+08,
                   VALE_REFE=2.E8,
                   REFERENCE='NON_DEFINI',
                   PRECISION=1.E-2,
                   MAILLE='MA1',),
                _F(INST=0.029999999999999999,
                   RESULTAT=LEDEP,
                   NOM_CHAM='SIGM_ELNO',
                   NOEUD='NO2',
                   NOM_CMP='SIXX',
                   VALE_CALC= 2.58000000E+08,
                   VALE_REFE=2.58000000E8,
                   REFERENCE='NON_DEFINI',
                   PRECISION=1.E-2,
                   MAILLE='MA1',),
                _F(INST=0.20000000000000001,
                   RESULTAT=LEDEP,
                   NOM_CHAM='SIGM_ELNO',
                   NOEUD='NO2',
                   NOM_CMP='SIXX',
                   VALE_CALC= 1.93156380E+08,
                   VALE_REFE=1.93156000E8,
                   REFERENCE='NON_DEFINI',
                   PRECISION=1.E-2,
                   MAILLE='MA1',),
                _F(INST=0.40000000000000002,
                   RESULTAT=LEDEP,
                   NOM_CHAM='SIGM_ELNO',
                   NOEUD='NO2',
                   NOM_CMP='SIXX',
                   VALE_CALC=-1.43311350E+08,
                   VALE_REFE=-1.43311000E8,
                   REFERENCE='NON_DEFINI',
                   PRECISION=1.E-2,
                   MAILLE='MA1',),
                _F(INST=6.4000000000000004,
                   RESULTAT=LEDEP,
                   NOM_CHAM='SIGM_ELNO',
                   NOEUD='NO2',
                   NOM_CMP='SIXX',
                   VALE_CALC=-2.77423860E+08,
                   VALE_REFE=-2.77424000E8,
                   REFERENCE='NON_DEFINI',
                   PRECISION=1.E-2,
                   MAILLE='MA1',),
                _F(INST=7.9199999999999999,
                   RESULTAT=LEDEP,
                   NOM_CHAM='SIGM_ELNO',
                   NOEUD='NO2',
                   NOM_CMP='SIXX',
                   VALE_CALC= 1.01029192E+08,
                   VALE_REFE=1.01029000E8,
                   REFERENCE='NON_DEFINI',
                   PRECISION=1.E-2,
                   MAILLE='MA1',),
                _F(INST=17.0,
                   RESULTAT=LEDEP,
                   NOM_CHAM='SIGM_ELNO',
                   NOEUD='NO2',
                   NOM_CMP='SIXX',
                   VALE_CALC=2.16470000E8,
                   TOLE_MACHINE=1.E-3,
                   MAILLE='MA1',),
                _F(INST=19.0,
                   RESULTAT=LEDEP,
                   NOM_CHAM='SIGM_ELNO',
                   NOEUD='NO2',
                   NOM_CMP='SIXX',
                   VALE_CALC= 2.57099610E+08,
                   VALE_REFE=2.57100000E8,
                   REFERENCE='NON_DEFINI',
                   PRECISION=1.E-2,
                   MAILLE='MA1',),
                _F(INST=20.0,
                   RESULTAT=LEDEP,
                   NOM_CHAM='SIGM_ELNO',
                   NOEUD='NO2',
                   NOM_CMP='SIXX',
                   VALE_CALC= 2.17745288E+08,
                   VALE_REFE=2.17745000E8,
                   REFERENCE='NON_DEFINI',
                   PRECISION=1.E-2,
                   MAILLE='MA1',),
                _F(INST=21.0,
                   RESULTAT=LEDEP,
                   NOM_CHAM='SIGM_ELNO',
                   NOEUD='NO2',
                   NOM_CMP='SIXX',
                   VALE_CALC=-8.03179852E+07,
                   VALE_REFE=-8.0318000E7,
                   REFERENCE='NON_DEFINI',
                   PRECISION=1.E-2,
                   MAILLE='MA1',),
                _F(INST=22.0,
                   RESULTAT=LEDEP,
                   NOM_CHAM='SIGM_ELNO',
                   NOEUD='NO2',
                   NOM_CMP='SIXX',
                   VALE_CALC=-1.28487101E+08,
                   VALE_REFE=-1.28487000E8,
                   REFERENCE='NON_DEFINI',
                   PRECISION=1.E-2,
                   MAILLE='MA1',),
                _F(INST=25.0,
                   RESULTAT=LEDEP,
                   NOM_CHAM='SIGM_ELNO',
                   NOEUD='NO2',
                   NOM_CMP='SIXX',
                   VALE_CALC= 2.04332325E+08,
                   VALE_REFE=2.04332000E8,
                   REFERENCE='NON_DEFINI',
                   PRECISION=1.E-2,
                   MAILLE='MA1',),
                _F(INST=50.0,
                   RESULTAT=LEDEP,
                   NOM_CHAM='SIGM_ELNO',
                   NOEUD='NO2',
                   NOM_CMP='SIXX',
                   VALE_CALC= 2.97690940E+08,
                   VALE_REFE=2.97691000E8,
                   REFERENCE='NON_DEFINI',
                   PRECISION=1.E-2,
                   MAILLE='MA1',),
                ),
          )

TEST_RESU(RESU=(_F(INST=1.E-3,
                   RESULTAT=LEDEP,
                   NOM_CHAM='EPSI_ELNO',
                   NOEUD='NO2',
                   NOM_CMP='EPXX',
                   VALE_CALC= 1.00000000E-03,
                   VALE_REFE=1.E-3,
                   REFERENCE='NON_DEFINI',
                   PRECISION=1.E-2,
                   MAILLE='MA1',),
                _F(INST=2.3E-3,
                   RESULTAT=LEDEP,
                   NOM_CHAM='EPSI_ELNO',
                   NOEUD='NO2',
                   NOM_CMP='EPXX',
                   VALE_CALC= 2.30000000E-03,
                   VALE_REFE=2.3E-3,
                   REFERENCE='NON_DEFINI',
                   PRECISION=1.E-2,
                   MAILLE='MA1',),
                _F(INST=0.029999999999999999,
                   RESULTAT=LEDEP,
                   NOM_CHAM='EPSI_ELNO',
                   NOEUD='NO2',
                   NOM_CMP='EPXX',
                   VALE_CALC=0.030000000,
                   VALE_REFE=0.029999999999999999,
                   REFERENCE='NON_DEFINI',
                   PRECISION=1.E-2,
                   MAILLE='MA1',),
                _F(INST=0.20000000000000001,
                   RESULTAT=LEDEP,
                   NOM_CHAM='EPSI_ELNO',
                   NOEUD='NO2',
                   NOM_CMP='EPXX',
                   VALE_CALC=0.029666667,
                   VALE_REFE=0.029666700000000001,
                   REFERENCE='NON_DEFINI',
                   PRECISION=1.E-2,
                   MAILLE='MA1',),
                _F(INST=0.40000000000000002,
                   RESULTAT=LEDEP,
                   NOM_CHAM='EPSI_ELNO',
                   NOEUD='NO2',
                   NOM_CMP='EPXX',
                   VALE_CALC=0.020000000,
                   VALE_REFE=0.02,
                   REFERENCE='NON_DEFINI',
                   PRECISION=1.E-2,
                   MAILLE='MA1',),
                _F(INST=6.4000000000000004,
                   RESULTAT=LEDEP,
                   NOM_CHAM='EPSI_ELNO',
                   NOEUD='NO2',
                   NOM_CMP='EPXX',
                   VALE_CALC=-0.040000000,
                   VALE_REFE=-0.040000000000000001,
                   REFERENCE='NON_DEFINI',
                   PRECISION=1.E-2,
                   MAILLE='MA1',),
                _F(INST=7.9199999999999999,
                   RESULTAT=LEDEP,
                   NOM_CHAM='EPSI_ELNO',
                   NOEUD='NO2',
                   NOM_CMP='EPXX',
                   VALE_CALC=-0.033000000,
                   VALE_REFE=-0.033000000000000002,
                   REFERENCE='NON_DEFINI',
                   PRECISION=1.E-2,
                   MAILLE='MA1',),
                _F(INST=17.0,
                   RESULTAT=LEDEP,
                   NOM_CHAM='EPSI_ELNO',
                   NOEUD='NO2',
                   NOM_CMP='EPXX',
                   VALE_CALC=1.E-2,
                   TOLE_MACHINE=1.E-3,
                   MAILLE='MA1',),
                _F(INST=19.0,
                   RESULTAT=LEDEP,
                   NOM_CHAM='EPSI_ELNO',
                   NOEUD='NO2',
                   NOM_CMP='EPXX',
                   VALE_CALC=0.030000000,
                   VALE_REFE=0.029999999999999999,
                   REFERENCE='NON_DEFINI',
                   PRECISION=1.E-2,
                   MAILLE='MA1',),
                _F(INST=20.0,
                   RESULTAT=LEDEP,
                   NOM_CHAM='EPSI_ELNO',
                   NOEUD='NO2',
                   NOM_CMP='EPXX',
                   VALE_CALC=0.029800000,
                   VALE_REFE=0.0298,
                   REFERENCE='NON_DEFINI',
                   PRECISION=1.E-2,
                   MAILLE='MA1',),
                _F(INST=21.0,
                   RESULTAT=LEDEP,
                   NOM_CHAM='EPSI_ELNO',
                   NOEUD='NO2',
                   NOM_CMP='EPXX',
                   VALE_CALC=0.026000000,
                   VALE_REFE=0.025999999999999999,
                   REFERENCE='NON_DEFINI',
                   PRECISION=1.E-2,
                   MAILLE='MA1',),
                _F(INST=22.0,
                   RESULTAT=LEDEP,
                   NOM_CHAM='EPSI_ELNO',
                   NOEUD='NO2',
                   NOM_CMP='EPXX',
                   VALE_CALC=0.022000000,
                   VALE_REFE=0.021999999999999999,
                   REFERENCE='NON_DEFINI',
                   PRECISION=1.E-2,
                   MAILLE='MA1',),
                _F(INST=25.0,
                   RESULTAT=LEDEP,
                   NOM_CHAM='EPSI_ELNO',
                   NOEUD='NO2',
                   NOM_CMP='EPXX',
                   VALE_CALC=0.025000000,
                   VALE_REFE=0.025000000000000001,
                   REFERENCE='NON_DEFINI',
                   PRECISION=1.E-2,
                   MAILLE='MA1',),
                _F(INST=50.0,
                   RESULTAT=LEDEP,
                   NOM_CHAM='EPSI_ELNO',
                   NOEUD='NO2',
                   NOM_CMP='EPXX',
                   VALE_CALC=0.050000000,
                   VALE_REFE=0.050000000000000003,
                   REFERENCE='NON_DEFINI',
                   PRECISION=1.E-2,
                   MAILLE='MA1',),
                ),
          )

FIN( )
#
