# person_in_charge: sebastien.fayolle at edf.fr
# TITRE  : ENDOMMAGEMENT D UNE PLAQUE PLANE SOUS SOLLICITATIONS VARIEES
# ======================================================================
# COPYRIGHT (C) 1991 - 2013  EDF R&D                  WWW.CODE-ASTER.ORG
# THIS PROGRAM IS FREE SOFTWARE; YOU CAN REDISTRIBUTE IT AND/OR MODIFY
# IT UNDER THE TERMS OF THE GNU GENERAL PUBLIC LICENSE AS PUBLISHED BY
# THE FREE SOFTWARE FOUNDATION; EITHER VERSION 2 OF THE LICENSE, OR
# (AT YOUR OPTION) ANY LATER VERSION.
#
# THIS PROGRAM IS DISTRIBUTED IN THE HOPE THAT IT WILL BE USEFUL, BUT
# WITHOUT ANY WARRANTY; WITHOUT EVEN THE IMPLIED WARRANTY OF
# MERCHANTABILITY OR FITNESS FOR A PARTICULAR PURPOSE. SEE THE GNU
# GENERAL PUBLIC LICENSE FOR MORE DETAILS.
#
# YOU SHOULD HAVE RECEIVED A COPY OF THE GNU GENERAL PUBLIC LICENSE
# ALONG WITH THIS PROGRAM; IF NOT, WRITE TO EDF R&D CODE_ASTER,
#    1 AVENUE DU GENERAL DE GAULLE, 92141 CLAMART CEDEX, FRANCE.
# ======================================================================
# COMPARAISON DES MODELE GLRC_DM, DHRC ET ENDO_ISOT
#
# DETAILS : MODELISATION : MULTI-COUCHES
#                          (DKT- ENDO_ISOT_BETON+2*GRILLE ACIER)
#                           .VS.
#                          DKTG (GLRC_DM OU DHRC)
#            MAILLAGE     : TRIA3
#            CHARGEMENT   : CYCLIQUE TRACTION/COMPRESSION + FLEXION
#            REMARQUE 1   : LES PARAMETRES GLRC_DM ONT ETE IDENTIFIES
#                           PAR LE TEST SSNS106A

DEBUT(CODE=_F(NIV_PUB_WEB='INTERNET',),DEBUG=_F(SDVERI='NON'),)
# SDVERI='NON' car la verification est trop couteuse en CPU

# PARAMETRES
EP = 0.1;

DEP0 = 0.001;
DR0 = 0.03;

t1 = 1.0;
t2 = (3.0 * t1);
t3 = (4.0 * t1);

dt = 0.05;

EGM = 35625.E6;
EGF = 38660.E6;
EB  = 32308.E6;

# -- MAILLAGE MULTI-COUCHES --

MAIL=LIRE_MAILLAGE();

MAIL=DEFI_GROUP(reuse =MAIL,
                MAILLAGE=MAIL,
                CREA_GROUP_NO=(_F(GROUP_MA='A1A2',),
                               _F(GROUP_MA='A4A3',),
                               _F(GROUP_MA='A2A4',),
                               _F(GROUP_MA='A3A1',),),);

MAIL=MODI_MAILLAGE(reuse =MAIL,
                   MAILLAGE=MAIL,
                   ORIE_NORM_COQUE=_F(GROUP_MA='DALLE',
                                      VECT_NORM=(0.,0.,1.,),
                                      GROUP_NO='A1',),);

# MAILLAGE ENDO_ISOT

MA=CREA_MAILLAGE(MAILLAGE=MAIL,
                 CREA_MAILLE=(_F(NOM='ACIER2L',
                                   GROUP_MA='DALLE',
                                   PREF_MAILLE='A2L',),
                                _F(NOM='ACIER1T',
                                   GROUP_MA='DALLE',
                                   PREF_MAILLE='A1T',),
                                _F(NOM='ACIER2T',
                                   GROUP_MA='DALLE',
                                   PREF_MAILLE='A2T',),
                                _F(NOM='ACIER1L',
                                   GROUP_MA='DALLE',
                                   PREF_MAILLE='A1L',),
                                _F(NOM='DALLE_G',
                                   GROUP_MA='DALLE',
                                   PREF_MAILLE='G',),),);

# -- MODELE ENDO_ISOT --

MO=AFFE_MODELE(MAILLAGE=MA,
               INFO=1,
               AFFE=(_F(GROUP_MA='DALLE',
                        PHENOMENE='MECANIQUE',
                        MODELISATION='DKT',),
                     _F(GROUP_MA='ACIER1L',
                        PHENOMENE='MECANIQUE',
                        MODELISATION='GRILLE_EXCENTRE',),
                     _F(GROUP_MA='ACIER1T',
                        PHENOMENE='MECANIQUE',
                        MODELISATION='GRILLE_EXCENTRE',),
                     _F(GROUP_MA='ACIER2L',
                        PHENOMENE='MECANIQUE',
                        MODELISATION='GRILLE_EXCENTRE',),
                     _F(GROUP_MA='ACIER2T',
                        PHENOMENE='MECANIQUE',
                        MODELISATION='GRILLE_EXCENTRE',),),);

# -- MODELE GLRC_DM ET DHRC --

MO_G=AFFE_MODELE(MAILLAGE=MA,
                 INFO=1,
                 AFFE=_F(GROUP_MA='DALLE_G',
                         PHENOMENE='MECANIQUE',
                         MODELISATION='DKTG',),);

# -- MATERIAUX --
# BETON & ACIER ENDO_ISOT

BETON_E=DEFI_MATERIAU(ELAS=_F(E=EB,
                              NU=0.2,
                              RHO=2500.0,),
                      BETON_ECRO_LINE=_F(D_SIGM_EPSI=(-0.2 * EB),
                                         SYT=3.4E6,),);

ACIER=DEFI_MATERIAU(ELAS=_F(E=2.E11,
                            NU=0.2,
                            RHO=7800.0,
                            AMOR_ALPHA=3.7771128018011707E-05,
                            AMOR_BETA=2.6476993459625175,),
                    ECRO_LINE=_F(D_SIGM_EPSI=3.E8,
                                 SY=5.70000000E8,),
                    INFO=1,);

#BETON GLRC_DM

MAT_G=DEFI_MATERIAU(ELAS_GLRC=_F(E_M=EGM,
                                 NU_M=0.18,
                                 E_F=EGF,
                                 NU_F=0.17,),
                    GLRC_DM=_F(GAMMA_T=0.06,
                               GAMMA_C=0.8,
                               GAMMA_F=0.45,
                               NYT=3.7E5,
                               MYF=9.E3,),);

#BETON DHRC

INCLUDE(UNITE=12, INFO=1,);

MATOR=DEFI_MATERIAU(ELAS=_F(E=2.e11,
                            NU=0.0,
                            RHO=7800.0,),);

# -- AFFECTATION DU MATERIAU POUR ENDO_ISOT --

MATER=AFFE_MATERIAU(MAILLAGE=MA,
                    AFFE=(_F(GROUP_MA='DALLE',
                             MATER=BETON_E,),
                          _F(GROUP_MA='ACIER1L',
                             MATER=ACIER,),
                          _F(GROUP_MA='ACIER1T',
                             MATER=ACIER,),
                          _F(GROUP_MA='ACIER2L',
                             MATER=ACIER,),
                          _F(GROUP_MA='ACIER2T',
                             MATER=ACIER,),),);

# -- AFFECTATION DU MATERIAU POUR GLRC_DM --

MATER_G=AFFE_MATERIAU(MAILLAGE=MA,
                      AFFE=(_F(GROUP_MA='DALLE_G',
                             MATER=MAT_G,),),);

# -- AFFECTATION DU MATERIAU POUR DHRC --

MATER_D=AFFE_MATERIAU(MAILLAGE=MA,
                    AFFE=(_F(GROUP_MA='DALLE_G',
                             MATER=MAT_D,),),);

COEF_DRZ = 1e-10;

# -- AFFECTATION DES CARACTERISTIQUES POUR ENDO_ISOT --

CAEL=AFFE_CARA_ELEM(MODELE=MO,
                    COQUE=_F(GROUP_MA='DALLE',
                             EPAIS=EP,
                             ANGL_REP=(0.0,0.0,),
                             COQUE_NCOU=11,
                             INER_ROTA='OUI',
                             MODI_METRIQUE='NON',),
                    GRILLE=(_F(GROUP_MA='ACIER1L',
                               SECTION=8.0E-4,
                               ANGL_REP=(0.0,0.0,),
                               EXCENTREMENT=(-(EP) * 0.4),
                               COEF_RIGI_DRZ=COEF_DRZ,),
                            _F(GROUP_MA='ACIER1T',
                               SECTION=8.0E-4,
                               ANGL_REP=(90.0,0.0,),
                               EXCENTREMENT=(-(EP) * 0.4),
                               COEF_RIGI_DRZ=COEF_DRZ,),
                            _F(GROUP_MA='ACIER2L',
                               SECTION=8.0E-4,
                               ANGL_REP=(0.0,0.0,),
                               EXCENTREMENT=(EP * 0.4),
                               COEF_RIGI_DRZ=COEF_DRZ,),
                            _F(GROUP_MA='ACIER2T',
                               SECTION=8.0E-4,
                               ANGL_REP=(90.0,0.0,),
                               EXCENTREMENT=(EP * 0.4),
                               COEF_RIGI_DRZ=COEF_DRZ,),),);

# -- AFFECTATION DES CARACTERISTIQUES POUR GLRC_DM ET DHRC --

CAEL_G=AFFE_CARA_ELEM(MODELE=MO_G,
                      COQUE=_F(GROUP_MA='DALLE_G',
                               EPAIS=EP,
                               ANGL_REP=(0.0,0.0,),
                               INER_ROTA='OUI',),);

# -- CONDITIONS LIMITES POUR ENDO_ISOT --

COND_0=AFFE_CHAR_MECA(MODELE=MO,
                      DDL_IMPO=(_F(GROUP_NO='A1',
                                   DX=0.0,
                                   DY=0.0,
                                   DZ=0.0,
                                   DRX=0.0,
                                   DRY=0.0,
                                   DRZ=0.0,),
                                _F(GROUP_MA='A3A1',
                                   DX=0.0,
                                   DRY=0.0,),),);

# -- CONDITIONS LIMITES POUR GLRC_DM ET DHRC --

COND_0G=AFFE_CHAR_MECA(MODELE=MO_G,
                       DDL_IMPO=(_F(GROUP_NO='A1',
                                    DX=0.0,
                                    DY=0.0,
                                    DZ=0.0,
                                    DRX=0.0,
                                    DRY=0.0,
                                    DRZ=0.0,),
                                 _F(GROUP_MA='A3A1',
                                    DX=0.0,
                                    DRY=0.0,),),);

# -- CHARGEMENT IMPOSE POUR ENDO_ISOT --

COND_1=AFFE_CHAR_MECA(MODELE=MO,
                      DDL_IMPO=_F(GROUP_MA='A2A4',
                                  DX=DEP0,
                                  DRY=DR0,),);

# -- CHARGEMENT IMPOSE POUR GLRC_DM ET DHRC --

COND_1G=AFFE_CHAR_MECA(MODELE=MO_G,
                       DDL_IMPO=_F(GROUP_MA='A2A4',
                                   DX=DEP0,
                                   DRY=DR0,),);

# -- FONCTION MULTIPLICATRICE POUR LE CHARGEMENT --

chf1=DEFI_FONCTION(NOM_PARA='INST',
                   VALE=(0.,0.,
                         t1,1.,
                         t2,-1.,
                         t3,0.,),
                   PROL_DROITE='CONSTANT',
                   PROL_GAUCHE='CONSTANT',);

INST=DEFI_LIST_REEL(DEBUT=0.0,
                    INTERVALLE=_F(JUSQU_A=t3,
                                  PAS=(dt / 2.0),),);

LINST=DEFI_LIST_INST(DEFI_LIST=_F(METHODE='MANUEL',
                                  LIST_INST=INST,),
                     ECHEC=_F(ACTION='DECOUPE',
                              SUBD_METHODE='MANUEL',
                              SUBD_PAS=4,
                              SUBD_PAS_MINI=0.0001,),);

INST2=DEFI_LIST_REEL(DEBUT=0.0,
                     INTERVALLE=(_F(JUSQU_A=1.975,
                                    PAS=(dt / 2.0),),
                                 _F(JUSQU_A=2.025,
                                    PAS=dt,),
                                 _F(JUSQU_A=t3,
                                    PAS=(dt / 2.0),),),);

LINST2=DEFI_LIST_INST(DEFI_LIST=_F(METHODE='MANUEL',
                                   LIST_INST=INST2,),
                      ECHEC=_F(ACTION='DECOUPE',
                               SUBD_METHODE='MANUEL',
                               SUBD_PAS=4,
                               SUBD_PAS_MINI=0.0001,),);

#-----------------------------------------------
# CALCUL DES RESULTATS POUR LE CHARGEMENT chf1
#-----------------------------------------------

RESU_R1=STAT_NON_LINE(MODELE=MO,
                      CHAM_MATER=MATER,
                      CARA_ELEM=CAEL,
                      EXCIT=(_F(CHARGE=COND_0,
                                FONC_MULT=chf1,),
                             _F(CHARGE=COND_1,
                                FONC_MULT=chf1,),),
                      COMPORTEMENT=(_F(RELATION='ENDO_ISOT_BETON',
                                       ITER_CPLAN_MAXI=20,
                                       GROUP_MA='DALLE',),
                                 _F(RELATION='GRILLE_ISOT_LINE',
                                    GROUP_MA=('ACIER1L','ACIER2L','ACIER1T','ACIER2T',),),),
                      INCREMENT=_F(LIST_INST=LINST2,
                                   INST_FIN=3.975,
                                   PRECISION=0.1,),
                      NEWTON=_F(REAC_ITER=1,),
                      CONVERGENCE=_F(ITER_GLOB_MAXI=25,),
                      ARCHIVAGE=_F(LIST_INST=INST2,),);


RESU_R1=CALC_CHAMP(reuse=RESU_R1,
                   RESULTAT=RESU_R1,
                   FORCE='FORC_NODA',
                   PRECISION=1.E-3,)

RESU_G1=STAT_NON_LINE(MODELE=MO_G,
                      CHAM_MATER=MATER_G,
                      CARA_ELEM=CAEL_G,
                      EXCIT=(_F(CHARGE=COND_0G,
                                FONC_MULT=chf1,),
                             _F(CHARGE=COND_1G,
                                FONC_MULT=chf1,),),
                      COMPORTEMENT=_F(RELATION='GLRC_DM',),
                      INCREMENT=_F(LIST_INST=LINST2,
                                   PRECISION=0.1,),
                      NEWTON=_F(MATRICE='TANGENTE',
                                REAC_ITER=1,),
                      ARCHIVAGE=_F(LIST_INST=INST2,),);

RESU_G1=CALC_CHAMP(reuse=RESU_G1,
                   RESULTAT=RESU_G1,
                   FORCE='FORC_NODA',
                   VARI_INTERNE='VARI_NOEU',
                   PRECISION=1.E-3,);

RESU_D1=STAT_NON_LINE(MODELE=MO_G,
                      CHAM_MATER=MATER_D,
                      CARA_ELEM=CAEL_G,
                      EXCIT=(_F(CHARGE=COND_0G,
                                FONC_MULT=chf1,),
                             _F(CHARGE=COND_1G,
                                FONC_MULT=chf1,),),
                      COMPORTEMENT=_F(RELATION='DHRC',),
                      INCREMENT=_F(LIST_INST=LINST2,
                                   PRECISION=0.1,),
                      NEWTON=_F(MATRICE='TANGENTE',
                                REAC_ITER=1,),
                      ARCHIVAGE=_F(LIST_INST=INST2,),);

RESU_D1=CALC_CHAMP(reuse=RESU_D1,
                   RESULTAT=RESU_D1,
                   FORCE='FORC_NODA',
                   VARI_INTERNE='VARI_NOEU',
                   PRECISION=1.E-3,);

# -- POST TRAITEMENT --

TDX_R1=POST_RELEVE_T(ACTION=(_F(OPERATION='EXTRACTION',
                                INTITULE='A2DX',
                                RESULTAT=RESU_R1,
                                NOM_CHAM='DEPL',
                                GROUP_NO='A2',
                                NOM_CMP='DX',),),);

TDX_R1=CALC_TABLE(reuse=TDX_R1,
                  TABLE=TDX_R1,
                  ACTION=(_F(OPERATION='EXTR',
                             NOM_PARA=('INST','DX',),),),);

TFXA2_R1=POST_RELEVE_T(ACTION=(_F(OPERATION='EXTRACTION',
                                  INTITULE='A2FX',
                                  RESULTAT=RESU_R1,
                                  NOM_CHAM='FORC_NODA',
                                  GROUP_NO='A2',
                                  NOM_CMP='DX',),),);

TFXA2_R1=CALC_TABLE(reuse=TFXA2_R1,
                    TABLE=TFXA2_R1,
                    ACTION=(_F(OPERATION='FILTRE',
                               NOM_PARA='NUME_ORDRE',
                               CRIT_COMP='GT',
                               VALE=0,),
                            _F(OPERATION='EXTR',
                               NOM_PARA=('INST','DX',),),
                            _F(OPERATION='RENOMME',
                               NOM_PARA=('DX','FXA2',),),),);

TFXA4_R1=POST_RELEVE_T(ACTION=(_F(OPERATION='EXTRACTION',
                                  INTITULE='A4FX',
                                  RESULTAT=RESU_R1,
                                  NOM_CHAM='FORC_NODA',
                                  GROUP_NO='A4',
                                  NOM_CMP='DX',),),);

TFXA4_R1=CALC_TABLE(reuse=TFXA4_R1,
                    TABLE=TFXA4_R1,
                    ACTION=(_F(OPERATION='FILTRE',
                               NOM_PARA='NUME_ORDRE',
                               CRIT_COMP='GT',
                               VALE=0,),
                            _F(OPERATION='EXTR',
                               NOM_PARA=('INST','DX',),),
                            _F(OPERATION='RENOMME',
                               NOM_PARA=('DX','FXA4',),),),);

TFXA6_R1=POST_RELEVE_T(ACTION=(_F(OPERATION='EXTRACTION',
                                  INTITULE='A6FX',
                                  RESULTAT=RESU_R1,
                                  NOM_CHAM='FORC_NODA',
                                  GROUP_NO='A6',
                                  NOM_CMP='DX',),),);

TFXA6_R1=CALC_TABLE(reuse=TFXA6_R1,
                    TABLE=TFXA6_R1,
                    ACTION=(_F(OPERATION='FILTRE',
                               NOM_PARA='NUME_ORDRE',
                               CRIT_COMP='GT',
                               VALE=0,),
                            _F(OPERATION='EXTR',
                               NOM_PARA=('INST','DX',),),
                            _F(OPERATION='RENOMME',
                               NOM_PARA=('DX','FXA6',),),),);


SUM_FX=FORMULE(VALE='FXA2+FXA4+FXA6',
               NOM_PARA=('FXA2','FXA4','FXA6',),);

TFX_R1=CALC_TABLE(TABLE=TFXA2_R1,
                  ACTION=(_F(OPERATION='COMB',
                             TABLE=TFXA4_R1,
                             NOM_PARA='INST',),
                          _F(OPERATION='COMB',
                             TABLE=TFXA6_R1,
                             NOM_PARA='INST',),
                          _F(OPERATION='OPER',
                             FORMULE=SUM_FX,
                             NOM_PARA='FX',),
                          _F(OPERATION='EXTR',
                             NOM_PARA=('INST','FX',),),),);

TDY_R1=POST_RELEVE_T(ACTION=(_F(OPERATION='EXTRACTION',
                                INTITULE='A4DY',
                                RESULTAT=RESU_R1,
                                NOM_CHAM='DEPL',
                                GROUP_NO='A4',
                                NOM_CMP='DY',),),);

TDY_R1=CALC_TABLE(reuse=TDY_R1,
                  TABLE=TDY_R1,
                  ACTION=(_F(OPERATION='FILTRE',
                             NOM_PARA='NUME_ORDRE',
                             CRIT_COMP='GT',
                             VALE=0,),),);

TMYA2_R1=POST_RELEVE_T(ACTION=(_F(OPERATION='EXTRACTION',
                                  INTITULE='A2MY',
                                  RESULTAT=RESU_R1,
                                  NOM_CHAM='FORC_NODA',
                                  GROUP_NO='A2',
                                  NOM_CMP='DRY',),),);

TMYA2_R1=CALC_TABLE(reuse=TMYA2_R1,
                    TABLE=TMYA2_R1,
                    ACTION=(_F(OPERATION='FILTRE',
                               NOM_PARA='NUME_ORDRE',
                               CRIT_COMP='GT',
                               VALE=0,),
                            _F(OPERATION='EXTR',
                               NOM_PARA=('INST','DRY',),),
                            _F(OPERATION='RENOMME',
                               NOM_PARA=('DRY','MYA2',),),),);

TMYA4_R1=POST_RELEVE_T(ACTION=(_F(OPERATION='EXTRACTION',
                                  INTITULE='A4MY',
                                  RESULTAT=RESU_R1,
                                  NOM_CHAM='FORC_NODA',
                                  GROUP_NO='A4',
                                  NOM_CMP='DRY',),),);

TMYA4_R1=CALC_TABLE(reuse=TMYA4_R1,
                    TABLE=TMYA4_R1,
                    ACTION=(_F(OPERATION='FILTRE',
                               NOM_PARA='NUME_ORDRE',
                               CRIT_COMP='GT',
                               VALE=0,),
                            _F(OPERATION='EXTR',
                               NOM_PARA=('INST','DRY',),),
                            _F(OPERATION='RENOMME',
                               NOM_PARA=('DRY','MYA4',),),),);

TMYA6_R1=POST_RELEVE_T(ACTION=(_F(OPERATION='EXTRACTION',
                                  INTITULE='A6MY',
                                  RESULTAT=RESU_R1,
                                  NOM_CHAM='FORC_NODA',
                                  GROUP_NO='A6',
                                  NOM_CMP='DRY',),),);

TMYA6_R1=CALC_TABLE(reuse=TMYA6_R1,
                    TABLE=TMYA6_R1,
                    ACTION=(_F(OPERATION='FILTRE',
                               NOM_PARA='NUME_ORDRE',
                               CRIT_COMP='GT',
                               VALE=0,),
                            _F(OPERATION='EXTR',
                               NOM_PARA=('INST','DRY',),),
                            _F(OPERATION='RENOMME',
                               NOM_PARA=('DRY','MYA6',),),),);

SUM_MY = FORMULE(VALE='MYA2+MYA4+MYA6',
                 NOM_PARA=('MYA2','MYA4','MYA6',),);

TMY_R1=CALC_TABLE(TABLE=TMYA2_R1,
                  ACTION=(_F(OPERATION='COMB',
                             TABLE=TMYA4_R1,
                             NOM_PARA='INST',),
                          _F(OPERATION='COMB',
                             TABLE=TMYA6_R1,
                             NOM_PARA='INST',),
                          _F(OPERATION='OPER',
                             FORMULE=SUM_MY,
                             NOM_PARA='MY',),
                          _F(OPERATION='EXTR',
                             NOM_PARA=('INST','MY',),),),);

TRX_R1=POST_RELEVE_T(ACTION=(_F(OPERATION='EXTRACTION',
                               INTITULE='A4RX',
                               RESULTAT=RESU_R1,
                               NOM_CHAM='DEPL',
                               GROUP_NO='A4',
                               NOM_CMP='DRX',),),);

TRX_R1=CALC_TABLE(reuse=TRX_R1,
                  TABLE=TRX_R1,
                  ACTION=(_F(OPERATION='FILTRE',
                             NOM_PARA='NUME_ORDRE',
                             CRIT_COMP='GT',
                             VALE=0,),
                          _F(OPERATION='RENOMME',
                             NOM_PARA=('DRX','RX',),),),);

IMPR_TABLE(TABLE=TDX_R1);
IMPR_TABLE(TABLE=TFX_R1,);
IMPR_TABLE(TABLE=TDY_R1,);
IMPR_TABLE(TABLE=TMY_R1,);
IMPR_TABLE(TABLE=TRX_R1,);

##################################################################

TDX_G1=POST_RELEVE_T(ACTION=(_F(OPERATION='EXTRACTION',
                                INTITULE='A2DX',
                                RESULTAT=RESU_G1,
                                NOM_CHAM='DEPL',
                                GROUP_NO='A2',
                                NOM_CMP='DX',),),);

TDX_G1=CALC_TABLE(reuse=TDX_G1,
                  TABLE=TDX_G1,
                  ACTION=(_F(OPERATION='EXTR',
                             NOM_PARA=('INST','DX',),),),);

TFXA2_G1=POST_RELEVE_T(ACTION=(_F(OPERATION='EXTRACTION',
                                  INTITULE='A2FX',
                                  RESULTAT=RESU_G1,
                                  NOM_CHAM='FORC_NODA',
                                  GROUP_NO='A2',
                                  NOM_CMP='DX',),),);

TFXA2_G1=CALC_TABLE(reuse=TFXA2_G1,
                    TABLE=TFXA2_G1,
                    ACTION=(_F(OPERATION='FILTRE',
                               NOM_PARA='NUME_ORDRE',
                               CRIT_COMP='GT',
                               VALE=0,),
                            _F(OPERATION='EXTR',
                               NOM_PARA=('INST','DX',),),
                            _F(OPERATION='RENOMME',
                               NOM_PARA=('DX','FXA2',),),),);

TFXA4_G1=POST_RELEVE_T(ACTION=(_F(OPERATION='EXTRACTION',
                                  INTITULE='A4FX',
                                  RESULTAT=RESU_G1,
                                  NOM_CHAM='FORC_NODA',
                                  GROUP_NO='A4',
                                  NOM_CMP='DX',),),);

TFXA4_G1=CALC_TABLE(reuse=TFXA4_G1,
                    TABLE=TFXA4_G1,
                    ACTION=(_F(OPERATION='FILTRE',
                               NOM_PARA='NUME_ORDRE',
                               CRIT_COMP='GT',
                               VALE=0,),
                            _F(OPERATION='EXTR',
                               NOM_PARA=('INST','DX',),),
                            _F(OPERATION='RENOMME',
                               NOM_PARA=('DX','FXA4',),),),);

TFXA6_G1=POST_RELEVE_T(ACTION=(_F(OPERATION='EXTRACTION',
                                  INTITULE='A6FX',
                                  RESULTAT=RESU_G1,
                                  NOM_CHAM='FORC_NODA',
                                  GROUP_NO='A6',
                                  NOM_CMP='DX',),),);

TFXA6_G1=CALC_TABLE(reuse=TFXA6_G1,
                    TABLE=TFXA6_G1,
                    ACTION=(_F(OPERATION='FILTRE',
                               NOM_PARA='NUME_ORDRE',
                               CRIT_COMP='GT',
                               VALE=0,),
                            _F(OPERATION='EXTR',
                               NOM_PARA=('INST','DX',),),
                            _F(OPERATION='RENOMME',
                               NOM_PARA=('DX','FXA6',),),),);

TFX_G1=CALC_TABLE(TABLE=TFXA2_G1,
                  ACTION=(_F(OPERATION='COMB',
                             TABLE=TFXA4_G1,
                             NOM_PARA='INST',),
                          _F(OPERATION='COMB',
                             TABLE=TFXA6_G1,
                             NOM_PARA='INST',),
                          _F(OPERATION='OPER',
                             FORMULE=SUM_FX,
                             NOM_PARA='FXG',),
                          _F(OPERATION='EXTR',
                             NOM_PARA=('INST','FXG',),),),);

TDY_G1=POST_RELEVE_T(ACTION=(_F(OPERATION='EXTRACTION',
                                INTITULE='A4DY',
                                RESULTAT=RESU_G1,
                                NOM_CHAM='DEPL',
                                GROUP_NO='A4',
                                NOM_CMP='DY',),),);

TDY_G1=CALC_TABLE(reuse=TDY_G1,
                  TABLE=TDY_G1,
                  ACTION=(_F(OPERATION='FILTRE',
                             NOM_PARA='NUME_ORDRE',
                             CRIT_COMP='GT',
                             VALE=0,),
                          _F(OPERATION='EXTR',
                             NOM_PARA=('INST','DY',),),
                          _F(OPERATION='RENOMME',
                             NOM_PARA=('DY','DYG',),),),);

TMYA2_G1=POST_RELEVE_T(ACTION=(_F(OPERATION='EXTRACTION',
                                  INTITULE='A2MY',
                                  RESULTAT=RESU_G1,
                                  NOM_CHAM='FORC_NODA',
                                  GROUP_NO='A2',
                                  NOM_CMP='DRY',),),);

TMYA2_G1=CALC_TABLE(reuse=TMYA2_G1,
                    TABLE=TMYA2_G1,
                    ACTION=(_F(OPERATION='FILTRE',
                               NOM_PARA='NUME_ORDRE',
                               CRIT_COMP='GT',
                               VALE=0,),
                            _F(OPERATION='EXTR',
                               NOM_PARA=('INST','DRY',),),
                            _F(OPERATION='RENOMME',
                               NOM_PARA=('DRY','MYA2',),),),);

TMYA4_G1=POST_RELEVE_T(ACTION=(_F(OPERATION='EXTRACTION',
                                  INTITULE='A4MY',
                                  RESULTAT=RESU_G1,
                                  NOM_CHAM='FORC_NODA',
                                  GROUP_NO='A4',
                                  NOM_CMP='DRY',),),);

TMYA4_G1=CALC_TABLE(reuse=TMYA4_G1,
                    TABLE=TMYA4_G1,
                    ACTION=(_F(OPERATION='FILTRE',
                               NOM_PARA='NUME_ORDRE',
                               CRIT_COMP='GT',
                               VALE=0,),
                            _F(OPERATION='EXTR',
                               NOM_PARA=('INST','DRY',),),
                            _F(OPERATION='RENOMME',
                               NOM_PARA=('DRY','MYA4',),),),);

TMYA6_G1=POST_RELEVE_T(ACTION=(_F(OPERATION='EXTRACTION',
                                 INTITULE='A6MY',
                                 RESULTAT=RESU_G1,
                                 NOM_CHAM='FORC_NODA',
                                 GROUP_NO='A6',
                                 NOM_CMP='DRY',),),);


TMYA6_G1=CALC_TABLE(reuse=TMYA6_G1,
                    TABLE=TMYA6_G1,
                    ACTION=(_F(OPERATION='FILTRE',
                               NOM_PARA='NUME_ORDRE',
                               CRIT_COMP='GT',
                               VALE=0,),
                            _F(OPERATION='EXTR',
                               NOM_PARA=('INST','DRY',),),
                            _F(OPERATION='RENOMME',
                               NOM_PARA=('DRY','MYA6',),),),);

TMY_G1=CALC_TABLE(TABLE=TMYA2_G1,
                  ACTION=(_F(OPERATION='COMB',
                             TABLE=TMYA4_G1,
                             NOM_PARA='INST',),
                          _F(OPERATION='COMB',
                             TABLE=TMYA6_G1,
                             NOM_PARA='INST',),
                          _F(OPERATION='OPER',
                             FORMULE=SUM_MY,
                             NOM_PARA='MYG',),
                          _F(OPERATION='EXTR',
                             NOM_PARA=('INST','MYG',),),),);

TRX_G1=POST_RELEVE_T(ACTION=(_F(OPERATION='EXTRACTION',
                                INTITULE='A4RX',
                                RESULTAT=RESU_G1,
                                NOM_CHAM='DEPL',
                                GROUP_NO='A4',
                                NOM_CMP='DRX',),),);

TRX_G1=CALC_TABLE(reuse=TRX_G1,
                  TABLE=TRX_G1,
                  ACTION=(_F(OPERATION='FILTRE',
                             NOM_PARA='NUME_ORDRE',
                             CRIT_COMP='GT',
                             VALE=0,),
                          _F(OPERATION='EXTR',
                             NOM_PARA=('INST','DRX',),),
                          _F(OPERATION='RENOMME',
                             NOM_PARA=('DRX','RXG',),),),);

TD_G1=POST_RELEVE_T(ACTION=(_F(OPERATION='EXTRACTION',
                               INTITULE='A4FX',
                               RESULTAT=RESU_G1,
                               NOM_CHAM='VARI_NOEU',
                               GROUP_NO='A4',
                               NOM_CMP=('V1','V2',),),),);

TD_G1=CALC_TABLE(reuse=TD_G1,
                 TABLE=TD_G1,
                 ACTION=(_F(OPERATION='FILTRE',
                            NOM_PARA='NUME_ORDRE',
                            CRIT_COMP='GT',
                            VALE=0,),
                        _F(OPERATION='EXTR',
                           NOM_PARA=('INST','V1','V2',),),
                        _F(OPERATION='RENOMME',
                           NOM_PARA=('V1','D1',),),
                        _F(OPERATION='RENOMME',
                           NOM_PARA=('V2','D2',),),),);

TDI_G1=POST_ELEM(RESULTAT=RESU_G1,
                 ENER_DISS=_F(TOUT='OUI',),);

IMPR_TABLE(TABLE=TDX_G1);
IMPR_TABLE(TABLE=TFX_G1,);
IMPR_TABLE(TABLE=TDY_G1,);
IMPR_TABLE(TABLE=TMY_G1,);
IMPR_TABLE(TABLE=TRX_G1,);
IMPR_TABLE(TABLE=TD_G1,);
IMPR_TABLE(TABLE=TDI_G1,);
##################################################################

TDX_D1=POST_RELEVE_T(ACTION=(_F(OPERATION='EXTRACTION',
                                INTITULE='A2DX',
                                RESULTAT=RESU_D1,
                                NOM_CHAM='DEPL',
                                GROUP_NO='A2',
                                NOM_CMP='DX',),),);

TDX_D1=CALC_TABLE(reuse=TDX_D1,
                  TABLE=TDX_D1,
                  ACTION=(_F(OPERATION='EXTR',
                             NOM_PARA=('INST','DX',),),),);

TFXA2_D1=POST_RELEVE_T(ACTION=(_F(OPERATION='EXTRACTION',
                                  INTITULE='A2FX',
                                  RESULTAT=RESU_D1,
                                  NOM_CHAM='FORC_NODA',
                                  GROUP_NO='A2',
                                  NOM_CMP='DX',),),);

TFXA2_D1=CALC_TABLE(reuse=TFXA2_D1,
                    TABLE=TFXA2_D1,
                    ACTION=(_F(OPERATION='FILTRE',
                               NOM_PARA='NUME_ORDRE',
                               CRIT_COMP='GT',
                               VALE=0,),
                            _F(OPERATION='EXTR',
                               NOM_PARA=('INST','DX',),),
                            _F(OPERATION='RENOMME',
                               NOM_PARA=('DX','FXA2',),),),);

TFXA4_D1=POST_RELEVE_T(ACTION=(_F(OPERATION='EXTRACTION',
                                  INTITULE='A4FX',
                                  RESULTAT=RESU_D1,
                                  NOM_CHAM='FORC_NODA',
                                  GROUP_NO='A4',
                                  NOM_CMP='DX',),),);

TFXA4_D1=CALC_TABLE(reuse=TFXA4_D1,
                    TABLE=TFXA4_D1,
                    ACTION=(_F(OPERATION='FILTRE',
                               NOM_PARA='NUME_ORDRE',
                               CRIT_COMP='GT',
                               VALE=0,),
                            _F(OPERATION='EXTR',
                               NOM_PARA=('INST','DX',),),
                            _F(OPERATION='RENOMME',
                               NOM_PARA=('DX','FXA4',),),),);

TFXA6_D1=POST_RELEVE_T(ACTION=(_F(OPERATION='EXTRACTION',
                                  INTITULE='A6FX',
                                  RESULTAT=RESU_D1,
                                  NOM_CHAM='FORC_NODA',
                                  GROUP_NO='A6',
                                  NOM_CMP='DX',),),);

TFXA6_D1=CALC_TABLE(reuse=TFXA6_D1,
                    TABLE=TFXA6_D1,
                    ACTION=(_F(OPERATION='FILTRE',
                               NOM_PARA='NUME_ORDRE',
                               CRIT_COMP='GT',
                               VALE=0,),
                            _F(OPERATION='EXTR',
                               NOM_PARA=('INST','DX',),),
                            _F(OPERATION='RENOMME',
                               NOM_PARA=('DX','FXA6',),),),);

TFX_D1=CALC_TABLE(TABLE=TFXA2_D1,
                  ACTION=(_F(OPERATION='COMB',
                             TABLE=TFXA4_D1,
                             NOM_PARA='INST',),
                          _F(OPERATION='COMB',
                             TABLE=TFXA6_D1,
                             NOM_PARA='INST',),
                          _F(OPERATION='OPER',
                             FORMULE=SUM_FX,
                             NOM_PARA='FXD',),
                          _F(OPERATION='EXTR',
                             NOM_PARA=('INST','FXD',),),),);

TDY_D1=POST_RELEVE_T(ACTION=(_F(OPERATION='EXTRACTION',
                                INTITULE='A4DY',
                                RESULTAT=RESU_D1,
                                NOM_CHAM='DEPL',
                                GROUP_NO='A4',
                                NOM_CMP='DY',),),);

TDY_D1=CALC_TABLE(reuse=TDY_D1,
                  TABLE=TDY_D1,
                  ACTION=(_F(OPERATION='FILTRE',
                             NOM_PARA='NUME_ORDRE',
                             CRIT_COMP='GT',
                             VALE=0,),
                          _F(OPERATION='EXTR',
                             NOM_PARA=('INST','DY',),),
                          _F(OPERATION='RENOMME',
                             NOM_PARA=('DY','DYD',),),),);

TMYA2_D1=POST_RELEVE_T(ACTION=(_F(OPERATION='EXTRACTION',
                                 INTITULE='A2MY',
                                 RESULTAT=RESU_D1,
                                 NOM_CHAM='FORC_NODA',
                                 GROUP_NO='A2',
                                 NOM_CMP='DRY',),),);

TMYA2_D1=CALC_TABLE(reuse=TMYA2_D1,
                    TABLE=TMYA2_D1,
                    ACTION=(_F(OPERATION='FILTRE',
                                NOM_PARA='NUME_ORDRE',
                                CRIT_COMP='GT',
                                VALE=0,),
                            _F(OPERATION='EXTR',
                               NOM_PARA=('INST','DRY',),),
                            _F(OPERATION='RENOMME',
                               NOM_PARA=('DRY','MYA2',),),),);

TMYA4_D1=POST_RELEVE_T(ACTION=(_F(OPERATION='EXTRACTION',
                                  INTITULE='A4MY',
                                  RESULTAT=RESU_D1,
                                  NOM_CHAM='FORC_NODA',
                                  GROUP_NO='A4',
                                  NOM_CMP='DRY',),),);

TMYA4_D1=CALC_TABLE(reuse=TMYA4_D1,
                    TABLE=TMYA4_D1,
                    ACTION=(_F(OPERATION='FILTRE',
                                NOM_PARA='NUME_ORDRE',
                                CRIT_COMP='GT',
                                VALE=0,),
                            _F(OPERATION='EXTR',
                               NOM_PARA=('INST','DRY',),),
                            _F(OPERATION='RENOMME',
                               NOM_PARA=('DRY','MYA4',),),),);

TMYA6_D1=POST_RELEVE_T(ACTION=(_F(OPERATION='EXTRACTION',
                                  INTITULE='A6MY',
                                  RESULTAT=RESU_D1,
                                  NOM_CHAM='FORC_NODA',
                                  GROUP_NO='A6',
                                  NOM_CMP='DRY',),),);


TMYA6_D1=CALC_TABLE(reuse=TMYA6_D1,
                    TABLE=TMYA6_D1,
                    ACTION=(_F(OPERATION='FILTRE',
                                NOM_PARA='NUME_ORDRE',
                                CRIT_COMP='GT',
                                VALE=0,),
                            _F(OPERATION='EXTR',
                               NOM_PARA=('INST','DRY',),),
                            _F(OPERATION='RENOMME',
                               NOM_PARA=('DRY','MYA6',),),),);

TMY_D1=CALC_TABLE(TABLE=TMYA2_D1,
                  ACTION=(_F(OPERATION='COMB',
                             TABLE=TMYA4_D1,
                             NOM_PARA='INST',),
                          _F(OPERATION='COMB',
                             TABLE=TMYA6_D1,
                             NOM_PARA='INST',),
                          _F(OPERATION='OPER',
                             FORMULE=SUM_MY,
                             NOM_PARA='MYD',),
                          _F(OPERATION='EXTR',
                             NOM_PARA=('INST','MYD',),),),);

TRX_D1=POST_RELEVE_T(ACTION=(_F(OPERATION='EXTRACTION',
                                INTITULE='A4RX',
                                RESULTAT=RESU_D1,
                                NOM_CHAM='DEPL',
                                GROUP_NO='A4',
                                NOM_CMP='DRX',),),);

TRX_D1=CALC_TABLE(reuse=TRX_D1,
                  TABLE=TRX_D1,
                  ACTION=(_F(OPERATION='FILTRE',
                             NOM_PARA='NUME_ORDRE',
                             CRIT_COMP='GT',
                             VALE=0,),),);

TRX_D1=CALC_TABLE(reuse=TRX_D1,
                  TABLE=TRX_D1,
                  ACTION=(_F(OPERATION='EXTR',
                             NOM_PARA=('INST','DRX',),),
                          _F(OPERATION='RENOMME',
                             NOM_PARA=('DRX','RXD',),),),);

TD_D1=POST_RELEVE_T(ACTION=(_F(OPERATION='EXTRACTION',
                               INTITULE='A4FX',
                               RESULTAT=RESU_D1,
                               NOM_CHAM='VARI_NOEU',
                               GROUP_NO='A4',
                               NOM_CMP=('V1','V2','V3','V4','V5','V6','V7','V8','V9'),),),);

TD_D1=CALC_TABLE(reuse=TD_D1,
                 TABLE=TD_D1,
                 ACTION=(_F(OPERATION='FILTRE',
                            NOM_PARA='NUME_ORDRE',
                            CRIT_COMP='GT',
                            VALE=0,),
                         _F(OPERATION='EXTR',
                            NOM_PARA=('INST','V1','V2','V3','V4','V5','V6','V7','V8','V9'),),
                         _F(OPERATION='RENOMME',
                            NOM_PARA=('V1','D1',),),
                         _F(OPERATION='RENOMME',
                            NOM_PARA=('V2','D2',),),
                         _F(OPERATION='RENOMME',
                            NOM_PARA=('V3','EX1',),),
                         _F(OPERATION='RENOMME',
                            NOM_PARA=('V4','EY1',),),
                         _F(OPERATION='RENOMME',
                            NOM_PARA=('V5','EX2',),),
                         _F(OPERATION='RENOMME',
                            NOM_PARA=('V6','EY2',),),),);

IMPR_TABLE(TABLE=TDX_D1);
IMPR_TABLE(TABLE=TFX_D1,);
IMPR_TABLE(TABLE=TDY_D1,);
IMPR_TABLE(TABLE=TMY_D1,);
IMPR_TABLE(TABLE=TRX_D1,);
IMPR_TABLE(TABLE=TD_D1,);
##################################################################
# DIFFERENCE ENTRE GLRC_DM ET EIB

DREL_FX=FORMULE(VALE='(FXG-FX)/FX',
                NOM_PARA=('FX','FXG',),);

D_REL_DY=FORMULE(VALE='(DYG-DY)/DY',
                 NOM_PARA=('DY','DYG',),);

D_FX_1=CALC_TABLE(TABLE=TFX_R1,
                  ACTION=(_F(OPERATION='COMB',
                             TABLE=TFX_G1,
                             NOM_PARA='INST',),
                          _F(OPERATION='OPER',
                             FORMULE=DREL_FX,
                             NOM_PARA='FXG_FX',),),);

D_DY_1=CALC_TABLE(TABLE=TDY_R1,
                  ACTION=(_F(OPERATION='COMB',
                             TABLE=TDY_G1,
                             NOM_PARA='INST',),
                          _F(OPERATION='EXTR',
                             NOM_PARA=('INST','DY','DYG',),),),);

D_DY_1=CALC_TABLE(reuse=D_DY_1,
                  TABLE=D_DY_1,
                  ACTION=_F(OPERATION='FILTRE',
                            NOM_PARA='DY',
                            CRIT_COMP='NE',
                            VALE=0.0,),);

D_DY_1=CALC_TABLE(reuse=D_DY_1,
                  TABLE=D_DY_1,
                  ACTION=_F(OPERATION='OPER',
                            FORMULE=D_REL_DY,
                            NOM_PARA='DYG_DY',),);

DREL_MY=FORMULE(VALE='(MYG-MY)/MY',
                NOM_PARA=('MY','MYG',),);

DREL_RX=FORMULE(VALE='(RXG-RX)/RX',
                NOM_PARA=('RX','RXG',),);

D_MY_1=CALC_TABLE(TABLE=TMY_R1,
                  ACTION=(_F(OPERATION='COMB',
                             TABLE=TMY_G1,
                             NOM_PARA='INST',),
                          _F(OPERATION='FILTRE',
                             NOM_PARA='MY',
                             CRIT_COMP='NE',
                             VALE=0.0,),
                          _F(OPERATION='OPER',
                             FORMULE=DREL_MY,
                             NOM_PARA='MYG_MY',),),);

D_RX_1=CALC_TABLE(TABLE=TRX_R1,
                  ACTION=(_F(OPERATION='COMB',
                             TABLE=TRX_G1,
                             NOM_PARA='INST',),
                          _F(OPERATION='FILTRE',
                             NOM_PARA='RX',
                             CRIT_COMP='NE',
                             VALE=0.0,),
                          _F(OPERATION='OPER',
                             FORMULE=DREL_RX,
                             NOM_PARA='RXG_RX',),),);

IMPR_TABLE(TABLE=D_FX_1,);
IMPR_TABLE(TABLE=D_DY_1,);
IMPR_TABLE(TABLE=D_MY_1,);
IMPR_TABLE(TABLE=D_RX_1,);

#################################################################
# DIFFERENCE ENTRE GLRC_DM ET DHRC

DREL_FXG = FORMULE(VALE='(FXG-FXD)/FXD',
                   NOM_PARA=('FXD','FXG',),);

DREL_DYG = FORMULE(VALE='(DYG-DYD)/DYD',
                   NOM_PARA=('DYD','DYG',),);

D_FX_1G=CALC_TABLE(TABLE=TFX_D1,
                   ACTION=(_F(OPERATION='COMB',
                              TABLE=TFX_G1,
                              NOM_PARA='INST',),
                           _F(OPERATION='OPER',
                              FORMULE=DREL_FXG,
                              NOM_PARA='FXG_FXD',),),);

D_DY_1G=CALC_TABLE(TABLE=TDY_D1,
                   ACTION=(_F(OPERATION='COMB',
                              TABLE=TDY_G1,
                              NOM_PARA='INST',),
                           _F(OPERATION='EXTR',
                              NOM_PARA=('INST','DYD','DYG',),),),);

D_DY_1G=CALC_TABLE(reuse=D_DY_1G,
                   TABLE=D_DY_1G,
                   ACTION=_F(OPERATION='FILTRE',
                             NOM_PARA='DY',
                             CRIT_COMP='NE',
                             VALE=0.0,),);

D_DY_1G=CALC_TABLE(reuse =D_DY_1G,
                   TABLE=D_DY_1G,
                   ACTION=_F(OPERATION='OPER',
                             FORMULE=DREL_DYG,
                             NOM_PARA='DYG_DYD',),);

DREL_MYG=FORMULE(VALE='(MYG-MYD)/MYD',
                 NOM_PARA=('MYD','MYG',),);

DREL_RXG=FORMULE(VALE='(RXG-RXD)/RXD',
                 NOM_PARA=('RXD','RXG',),);

D_MY_1G=CALC_TABLE(TABLE=TMY_D1,
                   ACTION=(_F(OPERATION='COMB',
                              TABLE=TMY_G1,
                              NOM_PARA='INST',),
                           _F(OPERATION='FILTRE',
                              NOM_PARA='MY',
                              CRIT_COMP='NE',
                              VALE=0.0,),
                           _F(OPERATION='OPER',
                              FORMULE=DREL_MYG,
                              NOM_PARA='MYG_MYD',),),);

D_RX_1G=CALC_TABLE(TABLE=TRX_D1,
                   ACTION=(_F(OPERATION='COMB',
                              TABLE=TRX_G1,
                              NOM_PARA='INST',),
                           _F(OPERATION='FILTRE',
                              NOM_PARA='RX',
                              CRIT_COMP='NE',
                              VALE=0.0,),
                           _F(OPERATION='OPER',
                              FORMULE=DREL_RXG,
                              NOM_PARA='RXG_RXD',),),);

IMPR_TABLE(TABLE=D_FX_1G,);
IMPR_TABLE(TABLE=D_DY_1G,);
IMPR_TABLE(TABLE=D_MY_1G,);
IMPR_TABLE(TABLE=D_RX_1G,);

#----- TRACTION - PHASE ELASTIQUE -----

TEST_TABLE(CRITERE='ABSOLU',
           VALE_CALC=1.01508895013,
           NOM_PARA='FXG_FX',
           TABLE=D_FX_1,
           FILTRE=_F(NOM_PARA='INST',
                     VALE=0.25,),);

TEST_TABLE(CRITERE='ABSOLU',
           VALE_CALC=2.50016697643,
           NOM_PARA='DYG_DY',
           TABLE=D_DY_1,
           FILTRE=_F(NOM_PARA='INST',
                     VALE=0.25,),);

#----- TRACTION - PHASE ENDOMMAGEMENT -----

TEST_TABLE(CRITERE='ABSOLU',
           VALE_CALC=1.49229576875,
           NOM_PARA='FXG_FX',
           TABLE=D_FX_1,
           FILTRE=_F(NOM_PARA='INST',
                     VALE=1.0,),);

#----- TRACTION - PHASE DECHARGEMENT -----

TEST_TABLE(CRITERE='ABSOLU',
           VALE_CALC=1.49229600017,
           NOM_PARA='FXG_FX',
           TABLE=D_FX_1,
           FILTRE=_F(NOM_PARA='INST',
                     VALE=1.5,),);

#----- COMPRESSION - PHASE CHARGEMENT(TOUJOURS ELASTIQUE) -----

TEST_TABLE(CRITERE='ABSOLU',
           VALE_CALC=-0.113418461389,
           NOM_PARA='FXG_FX',
           TABLE=D_FX_1,
           FILTRE=_F(NOM_PARA='INST',
                     VALE=2.5,),);

#----- COMPRESSION - PHASE DECHARGEMENT -----

TEST_TABLE(CRITERE='ABSOLU',
           VALE_CALC=-0.127499335176,
           NOM_PARA='FXG_FX',
           TABLE=D_FX_1,
           FILTRE=_F(NOM_PARA='INST',
                     VALE=3.5,),);

#----- TRACTION - PHASE ELASTIQUE -----

TEST_TABLE(CRITERE='ABSOLU',
           VALE_CALC=-6.60608799198E-08,
           NOM_PARA='FXG_FXD',
           TABLE=D_FX_1G,
           FILTRE=_F(NOM_PARA='INST',
                     VALE=0.05,),);

TEST_TABLE(CRITERE='ABSOLU',
           VALE_CALC=-0.0688279909399,
           NOM_PARA='DYG_DYD',
           TABLE=D_DY_1G,
           FILTRE=_F(NOM_PARA='INST',
                     VALE=0.05,),);

#----- TRACTION - PHASE ENDOMMAGEMENT -----

TEST_TABLE(CRITERE='ABSOLU',
           VALE_CALC=0.0830759601492,
           NOM_PARA='FXG_FXD',
           TABLE=D_FX_1G,
           FILTRE=_F(NOM_PARA='INST',
                     VALE=0.25,),);

TEST_TABLE(CRITERE='ABSOLU',
           VALE_CALC=1.08125653235,
           NOM_PARA='DYG_DYD',
           TABLE=D_DY_1G,
           FILTRE=_F(NOM_PARA='INST',
                     VALE=0.25,),);

#----- TRACTION - PHASE GLISSEMENT -----

TEST_TABLE(CRITERE='ABSOLU',
           VALE_CALC=0.143585963641,
           NOM_PARA='FXG_FXD',
           TABLE=D_FX_1G,
           FILTRE=_F(NOM_PARA='INST',
                     VALE=0.8,),);

TEST_TABLE(CRITERE='ABSOLU',
           VALE_CALC=1.55580556647,
           NOM_PARA='DYG_DYD',
           TABLE=D_DY_1G,
           FILTRE=_F(NOM_PARA='INST',
                     VALE=0.8,),);

#----- TRACTION - PHASE DECHARGEMENT -----

TEST_TABLE(CRITERE='ABSOLU',
           VALE_CALC=0.302808444697,
           NOM_PARA='FXG_FXD',
           TABLE=D_FX_1G,
           FILTRE=_F(NOM_PARA='INST',
                     VALE=1.5,),);

TEST_TABLE(CRITERE='ABSOLU',
           VALE_CALC=2.26648366437,
           NOM_PARA='DYG_DYD',
           TABLE=D_DY_1G,
           FILTRE=_F(NOM_PARA='INST',
                     VALE=1.5,),);

#----- COMPRESSION - PHASE CHARGEMENT -----

TEST_TABLE(CRITERE='ABSOLU',
           VALE_CALC=4.38053988778,
           NOM_PARA='FXG_FXD',
           TABLE=D_FX_1G,
           FILTRE=_F(NOM_PARA='INST',
                     VALE=2.5,),);

TEST_TABLE(CRITERE='ABSOLU',
           VALE_CALC=4.91727107759,
           NOM_PARA='DYG_DYD',
           TABLE=D_DY_1G,
           FILTRE=_F(NOM_PARA='INST',
                     VALE=2.5,),);

#----- COMPRESSION - PHASE DECHARGEMENT -----

TEST_TABLE(CRITERE='ABSOLU',
           VALE_CALC=5.6026777494,
           NOM_PARA='FXG_FXD',
           TABLE=D_FX_1G,
           FILTRE=_F(NOM_PARA='INST',
                     VALE=3.5,),);

TEST_TABLE(CRITERE='ABSOLU',
           VALE_CALC=7.75844364949,
           NOM_PARA='DYG_DYD',
           TABLE=D_DY_1G,
           FILTRE=_F(NOM_PARA='INST',
                     VALE=3.5,),);

##----- FLEXION POSITIVE - PHASE ELASTIQUE -----

TEST_TABLE(CRITERE='ABSOLU',
           VALE_CALC=0.053928832983,
           NOM_PARA='MYG_MYD',
           TABLE=D_MY_1G,
           FILTRE=_F(NOM_PARA='INST',
                     VALE=0.05,),);

TEST_TABLE(CRITERE='ABSOLU',
           VALE_CALC=-0.1370655366,
           NOM_PARA='RXG_RXD',
           TABLE=D_RX_1G,
           FILTRE=_F(NOM_PARA='INST',
                     VALE=0.05,),);

##----- FLEXION POSITIVE - PHASE ENDOMMAGEMENT -----

TEST_TABLE(CRITERE='ABSOLU',
           VALE_CALC=-0.074341163436,
           NOM_PARA='MYG_MYD',
           TABLE=D_MY_1G,
           FILTRE=_F(NOM_PARA='INST',
                     VALE=0.25,),);

TEST_TABLE(CRITERE='ABSOLU',
           VALE_CALC=-0.0236873137464,
           NOM_PARA='RXG_RXD',
           TABLE=D_RX_1G,
           FILTRE=_F(NOM_PARA='INST',
                     VALE=0.25,),);

##----- FLEXION POSITIVE - PHASE GLISSEMENT -----

TEST_TABLE(CRITERE='ABSOLU',
           VALE_CALC=0.0703478435674,
           NOM_PARA='MYG_MYD',
           TABLE=D_MY_1G,
           FILTRE=_F(NOM_PARA='INST',
                     VALE=0.8,),);

TEST_TABLE(CRITERE='ABSOLU',
           VALE_CALC=0.112255342249,
           NOM_PARA='RXG_RXD',
           TABLE=D_RX_1G,
           FILTRE=_F(NOM_PARA='INST',
                     VALE=0.8,),);

##----- FLEXION POSITIVE - PHASE DECHARGEMENT -----

TEST_TABLE(CRITERE='ABSOLU',
           VALE_CALC=0.151649992453,
           NOM_PARA='MYG_MYD',
           TABLE=D_MY_1G,
           FILTRE=_F(NOM_PARA='INST',
                     VALE=1.5,),);

TEST_TABLE(CRITERE='ABSOLU',
           VALE_CALC=0.202161103352,
           NOM_PARA='RXG_RXD',
           TABLE=D_RX_1G,
           FILTRE=_F(NOM_PARA='INST',
                     VALE=1.5,),);

##----- FLEXION NEGATIVE - PHASE ELASTIQUE -----

TEST_TABLE(CRITERE='ABSOLU',
           VALE_CALC=-0.338907643653,
           NOM_PARA='MYG_MYD',
           TABLE=D_MY_1G,
           FILTRE=_F(NOM_PARA='INST',
                     VALE=2.05,),);

TEST_TABLE(CRITERE='ABSOLU',
           VALE_CALC=-0.387882677794,
           NOM_PARA='RXG_RXD',
           TABLE=D_RX_1G,
           FILTRE=_F(NOM_PARA='INST',
                     VALE=2.05,),);

##----- FLEXION NEGATIVE - PHASE ENDOMMAGEMENT/GLISSEMENT -----

TEST_TABLE(CRITERE='ABSOLU',
           VALE_CALC=0.116166312794,
           NOM_PARA='MYG_MYD',
           TABLE=D_MY_1G,
           FILTRE=_F(NOM_PARA='INST',
                     VALE=3.0,),);

TEST_TABLE(CRITERE='ABSOLU',
           VALE_CALC=0.28223959643,
           NOM_PARA='RXG_RXD',
           TABLE=D_RX_1G,
           FILTRE=_F(NOM_PARA='INST',
                     VALE=3.0,),);

##----- FLEXION NEGATIVE - PHASE DECHARGEMENT -----

TEST_TABLE(CRITERE='ABSOLU',
           VALE_CALC=0.158237179627,
           NOM_PARA='MYG_MYD',
           TABLE=D_MY_1G,
           FILTRE=_F(NOM_PARA='INST',
                     VALE=3.5,),);

TEST_TABLE(CRITERE='ABSOLU',
           VALE_CALC=0.360456473231,
           NOM_PARA='RXG_RXD',
           TABLE=D_RX_1G,
           FILTRE=_F(NOM_PARA='INST',
                     VALE=3.5,),);

#----- FLEXION POSITIVE - PHASE ELASTIQUE -----

TEST_TABLE(CRITERE='ABSOLU',
           VALE_CALC=1.82558179048,
           NOM_PARA='MYG_MY',
           TABLE=D_MY_1,
           FILTRE=_F(NOM_PARA='INST',
                     VALE=0.25,),);

TEST_TABLE(CRITERE='ABSOLU',
           VALE_CALC=10.4852341828,
           NOM_PARA='RXG_RX',
           TABLE=D_RX_1,
           FILTRE=_F(NOM_PARA='INST',
                     VALE=0.25,),);

#----- FLEXION POSITIVE - PHASE ENDOMMAGEMENT -----

TEST_TABLE(CRITERE='ABSOLU',
           VALE_CALC=1.26753934606,
           NOM_PARA='MYG_MY',
           TABLE=D_MY_1,
           FILTRE=_F(NOM_PARA='INST',
                     VALE=1.0,),);

#----- FLEXION POSITIVE - PHASE DECHARGEMENT -----

TEST_TABLE(CRITERE='ABSOLU',
           VALE_CALC=1.26753926003,
           NOM_PARA='MYG_MY',
           TABLE=D_MY_1,
           FILTRE=_F(NOM_PARA='INST',
                     VALE=1.5,),);

#----- FLEXION NEGATIVE - PHASE ELASTIQUE -----

TEST_TABLE(CRITERE='ABSOLU',
           VALE_CALC=-0.425273286817,
           NOM_PARA='MYG_MY',
           TABLE=D_MY_1,
           FILTRE=_F(NOM_PARA='INST',
                     VALE=2.25,),);


#----- FLEXION NEGATIVE - PHASE ENDOMMAGEMENT -----

TEST_TABLE(CRITERE='ABSOLU',
           VALE_CALC=-0.399008689191,
           NOM_PARA='MYG_MY',
           TABLE=D_MY_1,
           FILTRE=_F(NOM_PARA='INST',
                     VALE=3.0,),);

#----- FLEXION NEGATIVE - PHASE DECHARGEMENT -----

TEST_TABLE(CRITERE='ABSOLU',
           VALE_CALC=-0.399008688401,
           NOM_PARA='MYG_MY',
           TABLE=D_MY_1,
           FILTRE=_F(NOM_PARA='INST',
                     VALE=3.5,),);


#Tracer des figures de la documentation V6.05.106
#test='ssns106j_'
#DEFI_FICHIER(ACTION='ASSOCIER',
             #FICHIER='REPE_OUT/'+test+'FX.png',
             #ACCES='NEW',
             #TYPE='ASCII',
             #UNITE=29,)

#T=(TFX_R1.EXTR_TABLE()).values()['INST']
#DX=(TDX_R1.EXTR_TABLE()).values()['DX']
#FX=(TFX_R1.EXTR_TABLE()).values()['FX']
#TD=(TFX_D1.EXTR_TABLE()).values()['INST']
#DXD=(TDX_D1.EXTR_TABLE()).values()['DX']
#FXD=(TFX_D1.EXTR_TABLE()).values()['FXD']
#TG=(TFX_G1.EXTR_TABLE()).values()['INST']
#DXG=(TDX_G1.EXTR_TABLE()).values()['DX']
#FXG=(TFX_G1.EXTR_TABLE()).values()['FXG']
                  
#IMPR_FONCTION(FORMAT='XMGRACE',
              #UNITE=29,
              #PILOTE='PNG',
              #BORNE_X=(0.,4.),
              #GRILLE_X=1.,
              #LEGENDE_X='Temps (s)',
              #LEGENDE_Y='FX (N)',
              #COURBE=(_F(LEGENDE='EIB',
                         #ABSCISSE=T,
                         #ORDONNEE=FX,
                         #MARQUEUR=0,
                         #COULEUR=1,),
                      #_F(LEGENDE='GLRC_DM',
                         #ABSCISSE=TG,
                         #ORDONNEE=FXG,
                         #MARQUEUR=0,
                         #COULEUR=2,),
                      #_F(LEGENDE='DHRC',
                         #ABSCISSE=TD,
                         #ORDONNEE=FXD,
                         #MARQUEUR=0,
                         #COULEUR=4,),),);

#DEFI_FICHIER(ACTION='LIBERER',
             #UNITE=29,);


#DEFI_FICHIER(ACTION='ASSOCIER',
             #FICHIER='REPE_OUT/'+test+'DY.png',
             #ACCES='NEW',
             #TYPE='ASCII',
             #UNITE=29,)

#T=(TDY_R1.EXTR_TABLE()).values()['INST']
#FX=(TDY_R1.EXTR_TABLE()).values()['DY']
#TD=(TDY_D1.EXTR_TABLE()).values()['INST']
#FXD=(TDY_D1.EXTR_TABLE()).values()['DYD']
#TG=(TDY_G1.EXTR_TABLE()).values()['INST']
#FXG=(TDY_G1.EXTR_TABLE()).values()['DYG']
                  
#IMPR_FONCTION(FORMAT='XMGRACE',
              #UNITE=29,
              #PILOTE='PNG',
              #BORNE_X=(0.,4.),
              #GRILLE_X=1.,
              #LEGENDE_X='Temps (s)',
              #LEGENDE_Y='DY (m)',
              #COURBE=(_F(LEGENDE='EIB',
                         #ABSCISSE=T,
                         #ORDONNEE=FX,
                         #MARQUEUR=0,
                         #COULEUR=1,),
                      #_F(LEGENDE='GLRC_DM',
                         #ABSCISSE=TG,
                         #ORDONNEE=FXG,
                         #MARQUEUR=0,
                         #COULEUR=2,),
                      #_F(LEGENDE='DHRC',
                         #ABSCISSE=TD,
                         #ORDONNEE=FXD,
                         #MARQUEUR=0,
                         #COULEUR=4,),),);

#DEFI_FICHIER(ACTION='LIBERER',
             #UNITE=29,);


#DEFI_FICHIER(ACTION='ASSOCIER',
             #FICHIER='REPE_OUT/'+test+'MY.png',
             #ACCES='NEW',
             #TYPE='ASCII',
             #UNITE=29,)

#T=(TMY_R1.EXTR_TABLE()).values()['INST']
#FX=(TMY_R1.EXTR_TABLE()).values()['MY']
#TD=(TMY_D1.EXTR_TABLE()).values()['INST']
#FXD=(TMY_D1.EXTR_TABLE()).values()['MYD']
#TG=(TMY_G1.EXTR_TABLE()).values()['INST']
#FXG=(TMY_G1.EXTR_TABLE()).values()['MYG']
                  
#IMPR_FONCTION(FORMAT='XMGRACE',
              #UNITE=29,
              #PILOTE='PNG',
              #BORNE_X=(0.,4.),
              #GRILLE_X=1.,
              #LEGENDE_X='Temps (s)',
              #LEGENDE_Y='MY (N.m)',
              #COURBE=(_F(LEGENDE='EIB',
                         #ABSCISSE=T,
                         #ORDONNEE=FX,
                         #MARQUEUR=0,
                         #COULEUR=1,),
                      #_F(LEGENDE='GLRC_DM',
                         #ABSCISSE=TG,
                         #ORDONNEE=FXG,
                         #MARQUEUR=0,
                         #COULEUR=2,),
                      #_F(LEGENDE='DHRC',
                         #ABSCISSE=TD,
                         #ORDONNEE=FXD,
                         #MARQUEUR=0,
                         #COULEUR=4,),),);

#DEFI_FICHIER(ACTION='LIBERER',
             #UNITE=29,);


#DEFI_FICHIER(ACTION='ASSOCIER',
             #FICHIER='REPE_OUT/'+test+'RX.png',
             #ACCES='NEW',
             #TYPE='ASCII',
             #UNITE=29,)

#T=(TRX_R1.EXTR_TABLE()).values()['INST']
#FX=(TRX_R1.EXTR_TABLE()).values()['RX']
#TD=(TRX_D1.EXTR_TABLE()).values()['INST']
#FXD=(TRX_D1.EXTR_TABLE()).values()['RXD']
#TG=(TRX_G1.EXTR_TABLE()).values()['INST']
#FXG=(TRX_G1.EXTR_TABLE()).values()['RXG']
                  
#IMPR_FONCTION(FORMAT='XMGRACE',
              #UNITE=29,
              #PILOTE='PNG',
              #BORNE_X=(0.,4.),
              #GRILLE_X=1.,
              #LEGENDE_X='Temps (s)',
              #LEGENDE_Y='RX (-)',
              #COURBE=(_F(LEGENDE='EIB',
                         #ABSCISSE=T,
                         #ORDONNEE=FX,
                         #MARQUEUR=0,
                         #COULEUR=1,),
                      #_F(LEGENDE='GLRC_DM',
                         #ABSCISSE=TG,
                         #ORDONNEE=FXG,
                         #MARQUEUR=0,
                         #COULEUR=2,),
                      #_F(LEGENDE='DHRC',
                         #ABSCISSE=TD,
                         #ORDONNEE=FXD,
                         #MARQUEUR=0,
                         #COULEUR=4,),),);

#DEFI_FICHIER(ACTION='LIBERER',
             #UNITE=29,);


#DEFI_FICHIER(ACTION='ASSOCIER',
             #FICHIER='REPE_OUT/'+test+'ENDO.png',
             #ACCES='NEW',
             #TYPE='ASCII',
             #UNITE=29,)

#TD=(TD_D1.EXTR_TABLE()).values()['INST']
#FDD1=(TD_D1.EXTR_TABLE()).values()['D1']
#FDD2=(TD_D1.EXTR_TABLE()).values()['D2']
#TG=(TD_G1.EXTR_TABLE()).values()['INST']
#FGD1=(TD_G1.EXTR_TABLE()).values()['D1']
#FGD2=(TD_G1.EXTR_TABLE()).values()['D2']
                  
#IMPR_FONCTION(FORMAT='XMGRACE',
              #UNITE=29,
              #PILOTE='PNG',
              #BORNE_X=(0.,4.),
              #GRILLE_X=1.,
              #LEGENDE_X='Temps (s)',
              #LEGENDE_Y='Endommagement (-)',
              #COURBE=(_F(LEGENDE='D1 - GLRC_DM',
                         #ABSCISSE=TG,
                         #ORDONNEE=FGD1,
                         #MARQUEUR=0,
                         #COULEUR=2,),
                      #_F(LEGENDE='D2 - GLRC_DM',
                         #ABSCISSE=TG,
                         #ORDONNEE=FGD2,
                         #STYLE=2,
                         #MARQUEUR=0,
                         #COULEUR=2,),
                      #_F(LEGENDE='D1 - DHRC',
                         #ABSCISSE=TD,
                         #ORDONNEE=FDD1,
                         #MARQUEUR=0,
                         #COULEUR=4,),
                      #_F(LEGENDE='D2 - DHRC',
                         #ABSCISSE=TD,
                         #ORDONNEE=FDD2,
                         #STYLE=2,
                         #MARQUEUR=0,
                         #COULEUR=4,),),);

#DEFI_FICHIER(ACTION='LIBERER',
             #UNITE=29,);


#DEFI_FICHIER(ACTION='ASSOCIER',
             #FICHIER='REPE_OUT/'+test+'DISS.png',
             #ACCES='NEW',
             #TYPE='ASCII',
             #UNITE=29,)

#TD=(TD_D1.EXTR_TABLE()).values()['INST']
#FDV7=(TD_D1.EXTR_TABLE()).values()['V7']
#FDV8=(TD_D1.EXTR_TABLE()).values()['V8']
#FDV9=(TD_D1.EXTR_TABLE()).values()['V9']
#TG=(TDI_G1.EXTR_TABLE()).values()['INST']
#FGD=(TDI_G1.EXTR_TABLE()).values()['TOTALE']
                  
#IMPR_FONCTION(FORMAT='XMGRACE',
              #UNITE=29,
              #PILOTE='PNG',
              #BORNE_X=(0.,4.),
              #GRILLE_X=1.,
              #LEGENDE_X='Temps (s)',
              #LEGENDE_Y='Dissipation (J)',
              #COURBE=(_F(LEGENDE='ENDO - GLRC_DM',
                         #ABSCISSE=TG,
                         #ORDONNEE=FGD,
                         #MARQUEUR=0,
                         #COULEUR=2,),
                      #_F(LEGENDE='TOTALE - DHRC',
                         #ABSCISSE=TD,
                         #ORDONNEE=FDV9,
                         #MARQUEUR=0,
                         #COULEUR=4,),
                      #_F(LEGENDE='ENDO - DHRC',
                         #ABSCISSE=TD,
                         #ORDONNEE=FDV8,
                         #STYLE=2,
                         #MARQUEUR=0,
                         #COULEUR=4,),
                      #_F(LEGENDE='GLISS - DHRC',
                         #ABSCISSE=TD,
                         #ORDONNEE=FDV7,
                         #STYLE=3,
                         #MARQUEUR=0,
                         #COULEUR=4,),),);

#DEFI_FICHIER(ACTION='LIBERER',
             #UNITE=29,);

FIN();
