# person_in_charge: sebastien.fayolle at edf.fr
# TITRE  : ENDOMMAGEMENT D UNE PLAQUE PLANE SOUS SOLLICITATIONS VARIEES
# ======================================================================
# COPYRIGHT (C) 1991 - 2013  EDF R&D                  WWW.CODE-ASTER.ORG
# THIS PROGRAM IS FREE SOFTWARE; YOU CAN REDISTRIBUTE IT AND/OR MODIFY
# IT UNDER THE TERMS OF THE GNU GENERAL PUBLIC LICENSE AS PUBLISHED BY
# THE FREE SOFTWARE FOUNDATION; EITHER VERSION 2 OF THE LICENSE, OR
# (AT YOUR OPTION) ANY LATER VERSION.
#
# THIS PROGRAM IS DISTRIBUTED IN THE HOPE THAT IT WILL BE USEFUL, BUT
# WITHOUT ANY WARRANTY; WITHOUT EVEN THE IMPLIED WARRANTY OF
# MERCHANTABILITY OR FITNESS FOR A PARTICULAR PURPOSE. SEE THE GNU
# GENERAL PUBLIC LICENSE FOR MORE DETAILS.
#
# YOU SHOULD HAVE RECEIVED A COPY OF THE GNU GENERAL PUBLIC LICENSE
# ALONG WITH THIS PROGRAM; IF NOT, WRITE TO EDF R&D CODE_ASTER,
#    1 AVENUE DU GENERAL DE GAULLE, 92141 CLAMART CEDEX, FRANCE.
# ======================================================================
#  DETAILS : MODELISATION : MULTI-COUCHES
#                          (DKT- ENDO_ISOT_BETON+2*GRILLE ACIER)
#                                           VS.
#                           DKTG (GLRC_DM)
#            MAILLAGE     : TRIA3
#            CHARGEMENT   : CYCLIQUE TRACTION/COMPRESSION + FLEXION
#            REMARQUE 1   : LES PARAMETRES GLRC_DM ONT ETE IDENTIFIES
#                           A PARTIR DES TESTS SSNS106A ET SSNS106B

DEBUT(CODE=_F(
NIV_PUB_WEB='INTERNET',),DEBUG=_F(SDVERI='NON'))
# SDVERI='NON' car la verification est trop couteuse en CPU
EP = 0.1;

DEP0 = 0.001;

DR0 = 0.03;

t1 = 1.0;

t2 = (3 * t1);

t3 = (4.0 * t1);

dt = 0.05;

fx = 500000.0;

EGM = 35625000000.0;

EGF = 38660000000.0;

EB = 32308000000.0;


# -- MAILLAGE MULTI-COUCHES --

MAIL=LIRE_MAILLAGE();

MAIL=DEFI_GROUP(reuse =MAIL,
                MAILLAGE=MAIL,
                CREA_GROUP_NO=(_F(GROUP_MA='A1A2',),
                               _F(GROUP_MA='A4A3',),
                               _F(GROUP_MA='A2A4',),
                               _F(GROUP_MA='A3A1',),),);

MAIL=MODI_MAILLAGE(reuse =MAIL,
                   MAILLAGE=MAIL,
                   ORIE_NORM_COQUE=_F(GROUP_MA='DALLE',
                                      VECT_NORM=(0.,0.,1.,),
                                      GROUP_NO='A1',),);

# MAILLAGE ENDO_ISOT

MA=CREA_MAILLAGE(MAILLAGE=MAIL,
                 CREA_GROUP_MA=(_F(NOM='ACIER2L',
                                   GROUP_MA='DALLE',
                                   PREF_MAILLE='A2L',),
                                _F(NOM='ACIER1T',
                                   GROUP_MA='DALLE',
                                   PREF_MAILLE='A1T',),
                                _F(NOM='ACIER2T',
                                   GROUP_MA='DALLE',
                                   PREF_MAILLE='A2T',),
                                _F(NOM='ACIER1L',
                                   GROUP_MA='DALLE',
                                   PREF_MAILLE='A1L',),
                                _F(NOM='DALLE_G',
                                   GROUP_MA='DALLE',
                                   PREF_MAILLE='G',),),);

# -- MODELE ENDO_ISOT --

MO=AFFE_MODELE(MAILLAGE=MA,
               INFO=1,
               AFFE=(_F(GROUP_MA='DALLE',
                        PHENOMENE='MECANIQUE',
                        MODELISATION='DKT',),
                     _F(GROUP_MA='ACIER1L',
                        PHENOMENE='MECANIQUE',
                        MODELISATION='GRILLE_EXCENTRE',),
                     _F(GROUP_MA='ACIER1T',
                        PHENOMENE='MECANIQUE',
                        MODELISATION='GRILLE_EXCENTRE',),
                     _F(GROUP_MA='ACIER2L',
                        PHENOMENE='MECANIQUE',
                        MODELISATION='GRILLE_EXCENTRE',),
                     _F(GROUP_MA='ACIER2T',
                        PHENOMENE='MECANIQUE',
                        MODELISATION='GRILLE_EXCENTRE',),),);

# -- MODELE GLRC_DM --

MO_G=AFFE_MODELE(MAILLAGE=MA,
                 INFO=1,
                 AFFE=_F(GROUP_MA='DALLE_G',
                         PHENOMENE='MECANIQUE',
                         MODELISATION='DKTG',),);


# -- MATERIAUX --
# BETON ENDO_ISOT

BETON_E=DEFI_MATERIAU(ELAS=_F(E=EB,
                              NU=0.2,
                              RHO=2500.0,),
                      BETON_ECRO_LINE=_F(D_SIGM_EPSI=(-0.2 * EB),
                                         SYT=3.4E6,),);

# ACIER

ACIER=DEFI_MATERIAU(ELAS=_F(E=2.E11,
                            NU=0.2,
                            RHO=7800.0,
                            AMOR_ALPHA=3.7771128018011707E-05,
                            AMOR_BETA=2.6476993459625175,),
                    ECRO_LINE=_F(D_SIGM_EPSI=3.E8,
                                 SY=5.70000000E8,),
                    INFO=1,);

# BETON ARME GLRC_DM

MAT_G=DEFI_MATERIAU(ELAS_GLRC=_F(E_M=EGM,
                                 NU_M=0.18,
                                 E_F=EGF,
                                 NU_F=0.17,),
                    GLRC_DM=_F(GAMMA_T=0.06,
                               GAMMA_C=0.8,
                               GAMMA_F=0.45,
                               NYT=3.7E5,
                               MYF=9.E3,),);


# BETON ARME DHRC

MAT_D=DEFI_MATERIAU(ELAS=_F(E=1.,
                            NU=0.23,),
                    DHRC_SEUILS=_F(
                               SYD=1.7E6,
                               SCRIT=.5E5,
                               K0MICR=1.476E-11,
                               A011=3.685E+09,
                               A012=6.985E+08,
                               A013=0.000E+00,
                               A014=4.944E+03,
                               A015=6.651E+02,
                               A016=0.000E+00,
                               A022=3.684E+09,
                               A023=0.000E+00,
                               A024=6.161E+02,
                               A025=4.318E+03,
                               A026=0.000E+00,
                               A033=1.409E+09,
                               A034=0.000E+00,
                               A035=0.000E+00,
                               A036=8.309E+02,
                               A044=3.154E+06,
                               A045=5.835E+05,
                               A046=0.000E+00,
                               A055=3.028E+06,
                               A056=0.000E+00,
                               A066=1.177E+06,
                               ),
                    DHRC=_F(
                               AAC111=2.086E+00,
                               AAC121=2.085E+00,
                               AAC131=1.000E+00,
                               AAC141=2.063E+00,
                               AAC151=1.764E+00,
                               AAC161=1.000E+00,
                               AAC221=2.086E+00,
                               AAC231=1.000E+00,
                               AAC241=1.764E+00,
                               AAC251=2.096E+00,
                               AAC261=1.000E+00,
                               AAC331=1.118E+00,
                               AAC341=1.000E+00,
                               AAC351=1.000E+00,
                               AAC361=1.122E+00,
                               AAC441=2.088E+00,
                               AAC451=2.092E+00,
                               AAC461=1.000E+00,
                               AAC551=2.096E+00,
                               AAC561=1.000E+00,
# ... 22 like lines cut
                               AAT111=1.952E+00,
                               AAT121=1.704E+00,
                               AAT131=1.000E+00,
                               AAT141=2.017E+00,
                               AAT151=1.233E+00,
                               AAT161=1.000E+00,
                               AAT221=1.945E+00,
                               AAT231=1.000E+00,
                               AAT241=1.224E+00,
                               AAT251=2.025E+00,
                               AAT261=1.000E+00,
                               AAT331=1.118E+00,
                               AAT341=1.000E+00,
                               AAT351=1.000E+00,
                               AAT361=1.122E+00,
                               AAT441=2.004E+00,
                               AAT451=1.882E+00,
                               AAT461=1.000E+00,
                               AAT551=2.025E+00,
                               AAT561=1.000E+00,
# ... 22 like lines cut
                               GAC111=8.998E-01,
                               GAC121=8.914E-01,
                               GAC131=1.000E+00,
                               GAC141=1.017E+01,
                               GAC151=3.416E+00,
                               GAC161=1.000E+00,
                               GAC221=8.998E-01,
                               GAC231=1.000E+00,
                               GAC241=3.416E+00,
                               GAC251=1.034E+01,
                               GAC261=1.000E+00,
                               GAC331=3.928E-01,
                               GAC341=1.000E+00,
                               GAC351=1.000E+00,
                               GAC361=2.248E+01,
                               GAC441=9.035E-01,
                               GAC451=8.912E-01,
                               GAC461=1.000E+00,
                               GAC551=8.969E-01,
                               GAC561=1.000E+00,
# ... 22 like lines cut
                               GAT111=1.007E-01,
                               GAT121=2.211E-01,
                               GAT131=1.000E+00,
                               GAT141=8.651E+01,
                               GAT151=1.590E+01,
                               GAT161=1.000E+00,
                               GAT221=9.489E-02,
                               GAT231=1.000E+00,
                               GAT241=1.549E+01,
                               GAT251=8.919E+01,
                               GAT261=1.000E+00,
                               GAT331=3.928E-01,
                               GAT341=1.000E+00,
                               GAT351=1.000E+00,
                               GAT361=2.248E+01,
                               GAT441=1.112E-01,
                               GAT451=1.883E-01,
                               GAT461=1.000E+00,
                               GAT551=2.908E-02,
                               GAT561=1.000E+00,
# ... 22 like lines cut
                               AB111=1.219E+00,
                               AB121=6.351E-01,
                               AB211=6.895E-01,
                               AB221=1.238E+00,
                               AB311=1.000E+00,
                               AB321=1.000E+00,
                               AB411=1.191E+00,
                               AB421=6.522E-01,
                               AB511=6.234E-01,
                               AB521=1.260E+00,
                               AB611=1.000E+00,
                               AB621=1.000E+00,
                               AB112=1.227E+00,
                               AB122=6.315E-01,
                               AB212=6.950E-01,
                               AB222=1.219E+00,
                               AB312=1.000E+00,
                               AB322=1.000E+00,
                               AB412=1.199E+00,
                               AB422=6.473E-01,
# ... 4 like lines cut
                               GB111=-1.071E+02,
                               GB121=-1.689E+01,
                               GB211=-2.012E+01,
                               GB221=-1.035E+02,
                               GB311=0.000E+00,
                               GB321=0.000E+00,
                               GB411=3.474E+00,
                               GB421=4.224E-01,
                               GB511=6.100E-01,
                               GB521=2.594E+00,
                               GB611=0.000E+00,
                               GB621=0.000E+00,
                               GB112=-1.070E+02,
                               GB122=-1.684E+01,
                               GB212=-2.007E+01,
                               GB222=-1.034E+02,
                               GB312=0.000E+00,
                               GB322=0.000E+00,
                               GB412=-3.470E+00,
                               GB422=-4.208E-01,
# ... 4 like lines cut
                               C0111=5.756E+07,
                               C0211=0.000E+00,
                               C0121=0.000E+00,
                               C0221=5.717E+07,
                               C0112=5.753E+07,
                               C0212=0.000E+00,
                               C0122=0.000E+00,
                               C0222=5.712E+07,
                               AC111=1.865E+00,
                               AC211=1.000E+00,
                               AC121=1.000E+00,
                               AC221=1.779E+00,
                               AC112=1.872E+00,
                               AC212=1.000E+00,
                               AC122=1.000E+00,
                               AC222=1.785E+00,
                               GC111=2.310E-01,
                               GC211=1.000E+00,
                               GC121=1.000E+00,
                               GC221=2.605E-01,
                               GC112=2.327E-01,
                               GC212=1.000E+00,
                               GC122=1.000E+00,
                               GC222=2.577E-01,
                              ),
                   );

MATOR=DEFI_MATERIAU(ELAS=_F(E=2.e11,
                            NU=0.0,
                            RHO=7800.0,),);

# -- AFFECTATION DU MATERIAU POUR ENDO_ISOT --

MATER=AFFE_MATERIAU(MAILLAGE=MA,
                    AFFE=(_F(GROUP_MA='DALLE',
                             MATER=BETON_E,),
                          _F(GROUP_MA='ACIER1L',
                             MATER=ACIER,),
                          _F(GROUP_MA='ACIER1T',
                             MATER=ACIER,),
                          _F(GROUP_MA='ACIER2L',
                             MATER=ACIER,),
                          _F(GROUP_MA='ACIER2T',
                             MATER=ACIER,),),);

# -- AFFECTATION DU MATERIAU POUR GLRC_DM --

MATER_G=AFFE_MATERIAU(MAILLAGE=MA,
                      AFFE=(_F(GROUP_MA='DALLE_G',
                             MATER=MAT_G,),
                           ),
                     );

# -- AFFECTATION DU MATERIAU POUR DHRC --

MATER_D=AFFE_MATERIAU(MAILLAGE=MA,
                    AFFE=(_F(GROUP_MA='DALLE_G',
                             MATER=MAT_D,),
                           ),
                     );

COEF_DRZ = 1e-10;

# -- AFFECTATION DES CARACTERISTIQUES POUR ENDO_ISOT --

CAEL=AFFE_CARA_ELEM(MODELE=MO,
                    INFO=1,
                    COQUE=_F(GROUP_MA='DALLE',
                             EPAIS=EP,
                             ANGL_REP=(0.0,0.0,),
                             COQUE_NCOU=11,
                             INER_ROTA='OUI',
                             MODI_METRIQUE='NON',),
                    GRILLE=(_F(GROUP_MA='ACIER1L',
                               SECTION=8.0E-4,
                               ANGL_REP=(0.0,0.0,),
                               EXCENTREMENT=(-(EP) * 0.4),
                               COEF_RIGI_DRZ=COEF_DRZ,),
                            _F(GROUP_MA='ACIER1T',
                               SECTION=8.0E-4,
                               ANGL_REP=(90.0,0.0,),
                               EXCENTREMENT=(-(EP) * 0.4),
                               COEF_RIGI_DRZ=COEF_DRZ,),
                            _F(GROUP_MA='ACIER2L',
                               SECTION=8.0E-4,
                               ANGL_REP=(0.0,0.0,),
                               EXCENTREMENT=(EP * 0.4),
                               COEF_RIGI_DRZ=COEF_DRZ,),
                            _F(GROUP_MA='ACIER2T',
                               SECTION=8.0E-4,
                               ANGL_REP=(90.0,0.0,),
                               EXCENTREMENT=(EP * 0.4),
                               COEF_RIGI_DRZ=COEF_DRZ,),),);

# -- AFFECTATION DES CARACTERISTIQUES POUR GLRC_DM & DHRC --

CAEL_G=AFFE_CARA_ELEM(MODELE=MO_G,
                      COQUE=_F(GROUP_MA='DALLE_G',
                               EPAIS=EP,
                               ANGL_REP=(0.0,0.0,),
                               INER_ROTA='OUI',),);

# -- CONDITIONS LIMITES POUR ENDO_ISOT --

COND_0=AFFE_CHAR_MECA(MODELE=MO,
                      DDL_IMPO=(_F(GROUP_NO='A1',
                                   DX=0.0,
                                   DY=0.0,
                                   DZ=0.0,
                                   DRX=0.0,
                                   DRY=0.0,
                                   DRZ=0.0,),
                                _F(GROUP_MA='A3A1',
                                   DX=0.0,
                                   DRY=0.0,),),);

# -- CONDITIONS LIMITES POUR GLRC_DM & DHRC --

COND_0G=AFFE_CHAR_MECA(MODELE=MO_G,
                       DDL_IMPO=(_F(GROUP_NO='A1',
                                    DX=0.0,
                                    DY=0.0,
                                    DZ=0.0,
                                    DRX=0.0,
                                    DRY=0.0,
                                    DRZ=0.0,),
                                 _F(GROUP_MA='A3A1',
                                    DX=0.0,
                                    DRY=0.0,),),);

# -- CHARGEMENT IMPOSE POUR ENDO_ISOT --

COND_1=AFFE_CHAR_MECA(MODELE=MO,
                      DDL_IMPO=(_F(GROUP_MA='A2A4',
                                   DRY=DR0,),
                                _F(GROUP_MA='A2A4',
                                   DX=DEP0,),),);

# -- CHARGEMENT IMPOSE POUR GLRC_DM & DHRC --

COND_1G=AFFE_CHAR_MECA(MODELE=MO_G,
                       DDL_IMPO=(_F(GROUP_MA='A2A4',
                                    DRY=DR0,),
                                 _F(GROUP_MA='A2A4',
                                    DX=DEP0,),),);


# -- FONCTION MULTIPLICATRICE POUR LE CHARGEMENT --

chf1=DEFI_FONCTION(NOM_PARA='INST',VALE=(0.,0.,
                         t1,1.,
                         t2,-1.,
                         t3,0.,
                         ),PROL_DROITE='CONSTANT',PROL_GAUCHE='CONSTANT',);

inst2=DEFI_LIST_REEL(DEBUT=0.0,
                     INTERVALLE=(_F(JUSQU_A=1.975,
                                    PAS=(dt / 2.0),),
                                 _F(JUSQU_A=2.025,
                                    PAS=dt,),
                                 _F(JUSQU_A=t3,
                                    PAS=(dt / 2),),),);

inst1=DEFI_LIST_REEL(DEBUT=0.0,
                     INTERVALLE=_F(JUSQU_A=t3,
                                   PAS=(dt / 2),),);

DEFLIST1=DEFI_LIST_INST(DEFI_LIST=_F(METHODE='MANUEL',
                                     LIST_INST=inst2,),
                        ECHEC=_F(ACTION        = 'DECOUPE',
                                 SUBD_METHODE  = 'MANUEL',
                                 SUBD_PAS=4,
                                 SUBD_PAS_MINI=0.0001,),);

DEFLIST2=DEFI_LIST_INST(DEFI_LIST=_F(METHODE='MANUEL',
                                     LIST_INST=inst2,),
                        ECHEC=_F(ACTION        = 'DECOUPE',
                                 SUBD_METHODE  = 'MANUEL',
                                 SUBD_PAS=4,
                                 SUBD_PAS_MINI=0.0001,),);

#-----------------------------------------------
# CALCUL DES RESULTATS POUR LE CHARGEMENT chf1
#-----------------------------------------------

RESU_R1=STAT_NON_LINE(MODELE=MO,
                      CHAM_MATER=MATER,
                      CARA_ELEM=CAEL,
                      EXCIT=(_F(CHARGE=COND_0,
                                FONC_MULT=chf1,),
                             _F(CHARGE=COND_1,
                                FONC_MULT=chf1,),),
                      COMPORTEMENT=(_F(RELATION='ENDO_ISOT_BETON',
                                    ITER_CPLAN_MAXI=10,
                                    GROUP_MA='DALLE',),
                                 _F(RELATION='GRILLE_ISOT_LINE',
                                    DEFORMATION='PETIT',
                                    GROUP_MA=('ACIER1L','ACIER2L','ACIER1T','ACIER2T',),),),
                      INCREMENT=_F(LIST_INST=DEFLIST2,
                                   PRECISION=0.1,),
                      NEWTON=_F(REAC_ITER=1,),
                      CONVERGENCE=_F(ITER_GLOB_MAXI=26,),);

RESU_R1=CALC_CHAMP(reuse =RESU_R1,RESULTAT=RESU_R1,PRECISION=1.E-3,
             FORCE=('FORC_NODA',),);

RESU_G1=STAT_NON_LINE(MODELE=MO_G,
                      CHAM_MATER=MATER_G,
                      CARA_ELEM=CAEL_G,
                      EXCIT=(_F(CHARGE=COND_0,
                                FONC_MULT=chf1,),
                             _F(CHARGE=COND_1,
                                FONC_MULT=chf1,),),
                      COMPORTEMENT=_F(RELATION='GLRC_DM',
                                   RESI_INTE_RELA=1e-16,),
                      INCREMENT=_F(LIST_INST=DEFLIST1,
                                   PRECISION=0.1,),
                      NEWTON=_F(REAC_ITER=1,),
                      CONVERGENCE=_F(ITER_GLOB_MAXI=26,),);

RESU_G1=CALC_CHAMP(reuse =RESU_G1,
                  FORCE=('FORC_NODA'),
                  RESULTAT=RESU_G1,
                   VARI_INTERNE=('VARI_ELNO','VARI_NOEU'),);

RESU_D1=STAT_NON_LINE(MODELE=MO_G,
                      CHAM_MATER=MATER_D,
                      CARA_ELEM=CAEL_G,
                      EXCIT=(_F(CHARGE=COND_0,
                                FONC_MULT=chf1,),
                             _F(CHARGE=COND_1,
                                FONC_MULT=chf1,),),
                      COMPORTEMENT=_F(RELATION='DHRC',
                                   RESI_INTE_RELA=1e-12,),
                      INCREMENT=_F(LIST_INST=DEFLIST1,
                                   PRECISION=0.1,),
                      NEWTON=_F(REAC_ITER=1,),
                      CONVERGENCE=_F(ITER_GLOB_MAXI=26,),);

RESU_D1=CALC_CHAMP(reuse =RESU_D1,
                  FORCE=('FORC_NODA'),
                  RESULTAT=RESU_D1,
                   VARI_INTERNE=('VARI_ELNO','VARI_NOEU'),);


# ---------------------POST-TRAITEMENT--------------------------

TFXA4_R1=POST_RELEVE_T(ACTION=(_F(OPERATION='EXTRACTION',
                                 INTITULE='A4FX',
                                 RESULTAT=RESU_R1,
                                 NOM_CHAM='FORC_NODA',
                                 GROUP_NO='A4',
                                 NOM_CMP='DX',),
                                ),

                                 );

TFXA4_R1=CALC_TABLE(reuse =TFXA4_R1,
               TABLE=TFXA4_R1,
               ACTION=(_F(
                          OPERATION = 'FILTRE',
                          NOM_PARA  = 'NUME_ORDRE',
                          CRIT_COMP = 'GT',
                          VALE    = 0,
                         ),),);
TFXA2_R1=POST_RELEVE_T(ACTION=(_F(OPERATION='EXTRACTION',
                                 INTITULE='A2FX',
                                 RESULTAT=RESU_R1,
                                 NOM_CHAM='FORC_NODA',
                                 GROUP_NO='A2',
                                 NOM_CMP='DX',),),);

TFXA2_R1=CALC_TABLE(reuse =TFXA2_R1,
               TABLE=TFXA2_R1,
               ACTION=(_F(
                          OPERATION = 'FILTRE',
                          NOM_PARA  = 'NUME_ORDRE',
                          CRIT_COMP = 'GT',
                          VALE    = 0,
                         ),),);

TFXA6_R1=POST_RELEVE_T(ACTION=(_F(OPERATION='EXTRACTION',
                                 INTITULE='A6FX',
                                 RESULTAT=RESU_R1,
                                 NOM_CHAM='FORC_NODA',
                                 GROUP_NO='A6',
                                 NOM_CMP='DX',),),);

TFXA6_R1=CALC_TABLE(reuse =TFXA6_R1,
               TABLE=TFXA6_R1,
               ACTION=(_F(
                          OPERATION = 'FILTRE',
                          NOM_PARA  = 'NUME_ORDRE',
                          CRIT_COMP = 'GT',
                          VALE    = 0,
                         ),),);

TFXA2_R1=CALC_TABLE(reuse =TFXA2_R1,
                    TABLE=TFXA2_R1,
                    ACTION=(_F(OPERATION='EXTR',
                               NOM_PARA=('INST','DX',),),
                            _F(OPERATION='RENOMME',
                               NOM_PARA=('DX','FXA2',),),),);

TFXA4_R1=CALC_TABLE(reuse =TFXA4_R1,
                    TABLE=TFXA4_R1,
                    ACTION=(_F(OPERATION='EXTR',
                               NOM_PARA=('INST','DX',),),
                            _F(OPERATION='RENOMME',
                               NOM_PARA=('DX','FXA4',),),),);

TFXA6_R1=CALC_TABLE(reuse =TFXA6_R1,
                    TABLE=TFXA6_R1,
                    ACTION=(_F(OPERATION='EXTR',
                               NOM_PARA=('INST','DX',),),
                            _F(OPERATION='RENOMME',
                               NOM_PARA=('DX','FXA6',),),),);


SUM_FX = FORMULE(VALE='FXA2+FXA4+FXA6',
                 NOM_PARA=('FXA2','FXA4','FXA6',),);

TFX_R1=CALC_TABLE(TABLE=TFXA2_R1,
                  ACTION=(_F(OPERATION='COMB',
                             TABLE=TFXA4_R1,
                             NOM_PARA='INST',),
                          _F(OPERATION='COMB',
                             TABLE=TFXA6_R1,
                             NOM_PARA='INST',),
                          _F(OPERATION='OPER',
                             FORMULE=SUM_FX,
                             NOM_PARA='FX',),
                          _F(OPERATION='EXTR',
                             NOM_PARA=('INST','FX',),),),);

DETRUIRE(CONCEPT=_F(NOM=(TFXA2_R1,TFXA4_R1,TFXA6_R1,),),);

TDY_R1=POST_RELEVE_T(ACTION=(_F(OPERATION='EXTRACTION',
                               INTITULE='A4DY',
                               RESULTAT=RESU_R1,
                               NOM_CHAM='DEPL',
                               GROUP_NO='A4',
                               NOM_CMP='DY',),),);


TDY_R1=CALC_TABLE(reuse =TDY_R1,
               TABLE=TDY_R1,
               ACTION=(_F(
                          OPERATION = 'FILTRE',
                          NOM_PARA  = 'NUME_ORDRE',
                          CRIT_COMP = 'GT',
                          VALE    = 0,
                         ),),);

##################################################################

TFXA4_G1=POST_RELEVE_T(ACTION=(_F(OPERATION='EXTRACTION',
                                 INTITULE='A4FX',
                                 RESULTAT=RESU_G1,
                                 NOM_CHAM='FORC_NODA',
                                 GROUP_NO='A4',
                                 NOM_CMP='DX',),),);

TFXA4_G1=CALC_TABLE(reuse =TFXA4_G1,
               TABLE=TFXA4_G1,
               ACTION=(_F(
                          OPERATION = 'FILTRE',
                          NOM_PARA  = 'NUME_ORDRE',
                          CRIT_COMP = 'GT',
                          VALE    = 0,
                         ),),);

TFXA2_G1=POST_RELEVE_T(ACTION=(_F(OPERATION='EXTRACTION',
                                 INTITULE='A2FX',
                                 RESULTAT=RESU_G1,
                                 NOM_CHAM='FORC_NODA',
                                 GROUP_NO='A2',
                                 NOM_CMP='DX',),),);


TFXA2_G1=CALC_TABLE(reuse =TFXA2_G1,
               TABLE=TFXA2_G1,
               ACTION=(_F(
                          OPERATION = 'FILTRE',
                          NOM_PARA  = 'NUME_ORDRE',
                          CRIT_COMP = 'GT',
                          VALE    = 0,
                         ),),);

TFXA6_G1=POST_RELEVE_T(ACTION=(_F(OPERATION='EXTRACTION',
                                 INTITULE='A6FX',
                                 RESULTAT=RESU_G1,
                                 NOM_CHAM='FORC_NODA',
                                 GROUP_NO='A6',
                                 NOM_CMP='DX',),),);


TFXA6_G1=CALC_TABLE(reuse =TFXA6_G1,
               TABLE=TFXA6_G1,
               ACTION=(_F(
                          OPERATION = 'FILTRE',
                          NOM_PARA  = 'NUME_ORDRE',
                          CRIT_COMP = 'GT',
                          VALE    = 0,
                         ),),);

TFXA2_G1=CALC_TABLE(reuse =TFXA2_G1,
                    TABLE=TFXA2_G1,
                    ACTION=(_F(OPERATION='EXTR',
                               NOM_PARA=('INST','DX',),),
                            _F(OPERATION='RENOMME',
                               NOM_PARA=('DX','FXA2',),),),);

TFXA4_G1=CALC_TABLE(reuse =TFXA4_G1,
                    TABLE=TFXA4_G1,
                    ACTION=(_F(OPERATION='EXTR',
                               NOM_PARA=('INST','DX',),),
                            _F(OPERATION='RENOMME',
                               NOM_PARA=('DX','FXA4',),),),);

TFXA6_G1=CALC_TABLE(reuse =TFXA6_G1,
                    TABLE=TFXA6_G1,
                    ACTION=(_F(OPERATION='EXTR',
                               NOM_PARA=('INST','DX',),),
                            _F(OPERATION='RENOMME',
                               NOM_PARA=('DX','FXA6',),),),);

TFX_G1=CALC_TABLE(TABLE=TFXA2_G1,
                  ACTION=(_F(OPERATION='COMB',
                             TABLE=TFXA4_G1,
                             NOM_PARA='INST',),
                          _F(OPERATION='COMB',
                             TABLE=TFXA6_G1,
                             NOM_PARA='INST',),
                          _F(OPERATION='OPER',
                             FORMULE=SUM_FX,
                             NOM_PARA='FXG',),
                          _F(OPERATION='EXTR',
                             NOM_PARA=('INST','FXG',),),),);

DETRUIRE(CONCEPT=_F(NOM=(TFXA2_G1,TFXA4_G1,TFXA6_G1,),),);


TD_G1=POST_RELEVE_T(ACTION=(_F(OPERATION='EXTRACTION',
                              INTITULE='A4FX',
                              RESULTAT=RESU_G1,
                              NOM_CHAM='VARI_NOEU',
                              GROUP_NO='A4',
                              NOM_CMP=('V1','V2',),),),);

TD_G1=CALC_TABLE(reuse =TD_G1,
               TABLE=TD_G1,
               ACTION=(_F(
                          OPERATION = 'FILTRE',
                          NOM_PARA  = 'NUME_ORDRE',
                          CRIT_COMP = 'GT',
                          VALE    = 0,
                         ),),);

TD_G1=CALC_TABLE(reuse =TD_G1,
                 TABLE=TD_G1,
                 ACTION=(_F(OPERATION='EXTR',
                               NOM_PARA=('INST','V1','V2',),),
                            _F(OPERATION='RENOMME',
                               NOM_PARA=('V1','D1',),),
                            _F(OPERATION='RENOMME',
                               NOM_PARA=('V2','D2',),),),);

TDY_G1=POST_RELEVE_T(ACTION=(_F(OPERATION='EXTRACTION',
                               INTITULE='A4DY',
                               RESULTAT=RESU_G1,
                               NOM_CHAM='DEPL',
                               GROUP_NO='A4',
                               NOM_CMP='DY',),
                             ),

                               );

TDY_G1=CALC_TABLE(reuse =TDY_G1,
               TABLE=TDY_G1,
               ACTION=(_F(
                          OPERATION = 'FILTRE',
                          NOM_PARA  = 'NUME_ORDRE',
                          CRIT_COMP = 'GT',
                          VALE    = 0,
                         ),),);

TDY_G1=CALC_TABLE(reuse =TDY_G1,
                  TABLE=TDY_G1,
                  ACTION=(_F(OPERATION='EXTR',
                             NOM_PARA=('INST','DY',),),
                          _F(OPERATION='RENOMME',
                             NOM_PARA=('DY','DYG',),),),);

##################################################################

TFXA4_D1=POST_RELEVE_T(ACTION=(_F(OPERATION='EXTRACTION',
                                 INTITULE='A4FX',
                                 RESULTAT=RESU_D1,
                                 NOM_CHAM='FORC_NODA',
                                 GROUP_NO='A4',
                                 NOM_CMP='DX',),),);

TFXA4_D1=CALC_TABLE(reuse =TFXA4_D1,
               TABLE=TFXA4_D1,
               ACTION=(_F(
                          OPERATION = 'FILTRE',
                          NOM_PARA  = 'NUME_ORDRE',
                          CRIT_COMP = 'GT',
                          VALE    = 0,
                         ),),);

TFXA2_D1=POST_RELEVE_T(ACTION=(_F(OPERATION='EXTRACTION',
                                 INTITULE='A2FX',
                                 RESULTAT=RESU_D1,
                                 NOM_CHAM='FORC_NODA',
                                 GROUP_NO='A2',
                                 NOM_CMP='DX',),),);


TFXA2_D1=CALC_TABLE(reuse =TFXA2_D1,
               TABLE=TFXA2_D1,
               ACTION=(_F(
                          OPERATION = 'FILTRE',
                          NOM_PARA  = 'NUME_ORDRE',
                          CRIT_COMP = 'GT',
                          VALE    = 0,
                         ),),);

TFXA6_D1=POST_RELEVE_T(ACTION=(_F(OPERATION='EXTRACTION',
                                 INTITULE='A6FX',
                                 RESULTAT=RESU_D1,
                                 NOM_CHAM='FORC_NODA',
                                 GROUP_NO='A6',
                                 NOM_CMP='DX',),),);


TFXA6_D1=CALC_TABLE(reuse =TFXA6_D1,
               TABLE=TFXA6_D1,
               ACTION=(_F(
                          OPERATION = 'FILTRE',
                          NOM_PARA  = 'NUME_ORDRE',
                          CRIT_COMP = 'GT',
                          VALE    = 0,
                         ),),);

TFXA2_D1=CALC_TABLE(reuse =TFXA2_D1,
                    TABLE=TFXA2_D1,
                    ACTION=(_F(OPERATION='EXTR',
                               NOM_PARA=('INST','DX',),),
                            _F(OPERATION='RENOMME',
                               NOM_PARA=('DX','FXA2',),),),);

TFXA4_D1=CALC_TABLE(reuse =TFXA4_D1,
                    TABLE=TFXA4_D1,
                    ACTION=(_F(OPERATION='EXTR',
                               NOM_PARA=('INST','DX',),),
                            _F(OPERATION='RENOMME',
                               NOM_PARA=('DX','FXA4',),),),);

TFXA6_D1=CALC_TABLE(reuse =TFXA6_D1,
                    TABLE=TFXA6_D1,
                    ACTION=(_F(OPERATION='EXTR',
                               NOM_PARA=('INST','DX',),),
                            _F(OPERATION='RENOMME',
                               NOM_PARA=('DX','FXA6',),),),);

TFX_D1=CALC_TABLE(TABLE=TFXA2_D1,
                  ACTION=(_F(OPERATION='COMB',
                             TABLE=TFXA4_D1,
                             NOM_PARA='INST',),
                          _F(OPERATION='COMB',
                             TABLE=TFXA6_D1,
                             NOM_PARA='INST',),
                          _F(OPERATION='OPER',
                             FORMULE=SUM_FX,
                             NOM_PARA='FXD',),
                          _F(OPERATION='EXTR',
                             NOM_PARA=('INST','FXD',),),),);

DETRUIRE(CONCEPT=_F(NOM=(TFXA2_D1,TFXA4_D1,TFXA6_D1,),),);


TD_D1=POST_RELEVE_T(ACTION=(_F(OPERATION='EXTRACTION',
                              INTITULE='A4FX',
                              RESULTAT=RESU_D1,
                              NOM_CHAM='VARI_NOEU',
                              GROUP_NO='A4',
                              NOM_CMP=('V1','V2','V3','V4','V5','V6',),),),);

TD_D1=CALC_TABLE(reuse =TD_D1,
               TABLE=TD_D1,
               ACTION=(_F(
                          OPERATION = 'FILTRE',
                          NOM_PARA  = 'NUME_ORDRE',
                          CRIT_COMP = 'GT',
                          VALE    = 0,
                         ),),);
TD_D1=CALC_TABLE(reuse =TD_D1,
                 TABLE=TD_D1,
                 ACTION=(_F(OPERATION='EXTR',
                               NOM_PARA=('INST','V1','V2','V3','V4','V5','V6',),),
                            _F(OPERATION='RENOMME',
                               NOM_PARA=('V1','D1',),),
                            _F(OPERATION='RENOMME',
                               NOM_PARA=('V2','D2',),),
                            _F(OPERATION='RENOMME',
                               NOM_PARA=('V3','EX1',),),
                            _F(OPERATION='RENOMME',
                               NOM_PARA=('V4','EY1',),),
                            _F(OPERATION='RENOMME',
                               NOM_PARA=('V5','EX2',),),
                            _F(OPERATION='RENOMME',
                               NOM_PARA=('V6','EY2',),),),);

TDY_D1=POST_RELEVE_T(ACTION=(_F(OPERATION='EXTRACTION',
                               INTITULE='A4DY',
                               RESULTAT=RESU_D1,
                               NOM_CHAM='DEPL',
                               GROUP_NO='A4',
                               NOM_CMP='DY',),
                             ),

                               );

TDY_D1=CALC_TABLE(reuse =TDY_D1,
               TABLE=TDY_D1,
               ACTION=(_F(
                          OPERATION = 'FILTRE',
                          NOM_PARA  = 'NUME_ORDRE',
                          CRIT_COMP = 'GT',
                          VALE    = 0,
                         ),),);

TDY_D1=CALC_TABLE(reuse =TDY_D1,
                  TABLE=TDY_D1,
                  ACTION=(_F(OPERATION='EXTR',
                             NOM_PARA=('INST','DY',),),
                          _F(OPERATION='RENOMME',
                             NOM_PARA=('DY','DYD',),),),);

##################################################################

DREL_FX  = FORMULE(VALE='(FXG-FX)/FX',
                   NOM_PARA=('FX','FXG',),);

D_REL_DY = FORMULE(VALE='(DYG-DY)/DY',
                   NOM_PARA=('DY','DYG',),);

D_FX_1=CALC_TABLE(TABLE=TFX_R1,
                  ACTION=(_F(OPERATION='COMB',
                             TABLE=TFX_G1,
                             NOM_PARA='INST',),
                          _F(OPERATION='OPER',
                             FORMULE=DREL_FX,
                             NOM_PARA='FXG_FX',),),);

D_DY_1=CALC_TABLE(TABLE=TDY_R1,
                  ACTION=(_F(OPERATION='COMB',
                             TABLE=TDY_G1,
                             NOM_PARA='INST',),
                          _F(OPERATION='EXTR',
                             NOM_PARA=('INST','DY','DYG',),),),);

D_DY_1=CALC_TABLE(reuse =D_DY_1,
                  TABLE=D_DY_1,
                  ACTION=_F(OPERATION='FILTRE',
                            NOM_PARA='DY',
                            CRIT_COMP='NE',
                            VALE=0.0,),);

D_DY_1=CALC_TABLE(reuse =D_DY_1,
                  TABLE=D_DY_1,
                  ACTION=_F(OPERATION='OPER',
                            FORMULE=D_REL_DY,
                            NOM_PARA='DYG_DY',),);

IMPR_TABLE(TABLE=D_FX_1,);

IMPR_TABLE(TABLE=D_DY_1,);

#################################################################

DREL_FXG = FORMULE(VALE='(FXG-FXD)/FXD',
                   NOM_PARA=('FXD','FXG',),);

DREL_DYG = FORMULE(VALE='(DYG-DYD)/DYD',
                   NOM_PARA=('DYD','DYG',),);

D_FX_1G=CALC_TABLE(TABLE=TFX_D1,
                  ACTION=(_F(OPERATION='COMB',
                             TABLE=TFX_G1,
                             NOM_PARA='INST',),
                          _F(OPERATION='OPER',
                             FORMULE=DREL_FXG,
                             NOM_PARA='FXG_FXD',),),);

D_DY_1G=CALC_TABLE(TABLE=TDY_D1,
                  ACTION=(_F(OPERATION='COMB',
                             TABLE=TDY_G1,
                             NOM_PARA='INST',),
                          _F(OPERATION='EXTR',
                             NOM_PARA=('INST','DYD','DYG',),),),);

D_DY_1G=CALC_TABLE(reuse =D_DY_1G,
                  TABLE=D_DY_1G,
                  ACTION=_F(OPERATION='FILTRE',
                            NOM_PARA='DY',
                            CRIT_COMP='NE',
                            VALE=0.0,),);

D_DY_1G=CALC_TABLE(reuse =D_DY_1G,
                  TABLE=D_DY_1G,
                  ACTION=_F(OPERATION='OPER',
                            FORMULE=DREL_DYG,
                            NOM_PARA='DYG_DYD',),);

IMPR_TABLE(TABLE=D_FX_1G,);

IMPR_TABLE(TABLE=D_DY_1G,);

#################################################################

TMYA4_R1=POST_RELEVE_T(ACTION=(_F(OPERATION='EXTRACTION',
                                 INTITULE='A4MY',
                                 RESULTAT=RESU_R1,
                                 NOM_CHAM='FORC_NODA',
                                 GROUP_NO='A4',
                                 NOM_CMP='DRY',),
                               ),);

TMYA4_R1=CALC_TABLE(reuse =TMYA4_R1,
               TABLE=TMYA4_R1,
               ACTION=(_F(
                          OPERATION = 'FILTRE',
                          NOM_PARA  = 'NUME_ORDRE',
                          CRIT_COMP = 'GT',
                          VALE    = 0,
                         ),),);

TMYA2_R1=POST_RELEVE_T(ACTION=(_F(OPERATION='EXTRACTION',
                                 INTITULE='A2MY',
                                 RESULTAT=RESU_R1,
                                 NOM_CHAM='FORC_NODA',
                                 GROUP_NO='A2',
                                 NOM_CMP='DRY',),),);

TMYA2_R1=CALC_TABLE(reuse =TMYA2_R1,
               TABLE=TMYA2_R1,
               ACTION=(_F(
                          OPERATION = 'FILTRE',
                          NOM_PARA  = 'NUME_ORDRE',
                          CRIT_COMP = 'GT',
                          VALE    = 0,
                         ),),);

TMYA6_R1=POST_RELEVE_T(ACTION=(_F(OPERATION='EXTRACTION',
                                 INTITULE='A6MY',
                                 RESULTAT=RESU_R1,
                                 NOM_CHAM='FORC_NODA',
                                 GROUP_NO='A6',
                                 NOM_CMP='DRY',),),);

TMYA6_R1=CALC_TABLE(reuse =TMYA6_R1,
               TABLE=TMYA6_R1,
               ACTION=(_F(
                          OPERATION = 'FILTRE',
                          NOM_PARA  = 'NUME_ORDRE',
                          CRIT_COMP = 'GT',
                          VALE    = 0,
                         ),),);

TMYA2_R1=CALC_TABLE(reuse =TMYA2_R1,
                    TABLE=TMYA2_R1,
                    ACTION=(_F(OPERATION='EXTR',
                               NOM_PARA=('INST','DRY',),),
                            _F(OPERATION='RENOMME',
                               NOM_PARA=('DRY','MYA2',),),),);

TMYA4_R1=CALC_TABLE(reuse =TMYA4_R1,
                    TABLE=TMYA4_R1,
                    ACTION=(_F(OPERATION='EXTR',
                               NOM_PARA=('INST','DRY',),),
                            _F(OPERATION='RENOMME',
                               NOM_PARA=('DRY','MYA4',),),),);

TMYA6_R1=CALC_TABLE(reuse =TMYA6_R1,
                    TABLE=TMYA6_R1,
                    ACTION=(_F(OPERATION='EXTR',
                               NOM_PARA=('INST','DRY',),),
                            _F(OPERATION='RENOMME',
                               NOM_PARA=('DRY','MYA6',),),),);

SUM_MY = FORMULE(VALE='MYA2+MYA4+MYA6',
                 NOM_PARA=('MYA2','MYA4','MYA6',),);

TMY_R1=CALC_TABLE(TABLE=TMYA2_R1,
                  ACTION=(_F(OPERATION='COMB',
                             TABLE=TMYA4_R1,
                             NOM_PARA='INST',),
                          _F(OPERATION='COMB',
                             TABLE=TMYA6_R1,
                             NOM_PARA='INST',),
                          _F(OPERATION='OPER',
                             FORMULE=SUM_MY,
                             NOM_PARA='MY',),
                          _F(OPERATION='EXTR',
                             NOM_PARA=('INST','MY',),),),);

DETRUIRE(CONCEPT=_F(NOM=(TMYA2_R1,TMYA4_R1,TMYA6_R1,),),);

TRX_R1=POST_RELEVE_T(ACTION=(_F(OPERATION='EXTRACTION',
                               INTITULE='A4RX',
                               RESULTAT=RESU_R1,
                               NOM_CHAM='DEPL',
                               GROUP_NO='A4',
                               NOM_CMP='DRX',),),);

TRX_R1=CALC_TABLE(reuse =TRX_R1,
               TABLE=TRX_R1,
               ACTION=(_F(
                          OPERATION = 'FILTRE',
                          NOM_PARA  = 'NUME_ORDRE',
                          CRIT_COMP = 'GT',
                          VALE    = 0,
                         ),),);

TRX_R1=CALC_TABLE(reuse =TRX_R1,
                  TABLE=TRX_R1,
                  ACTION=_F(OPERATION='RENOMME',
                            NOM_PARA=('DRX','RX',),),);

IMPR_TABLE(TABLE=TMY_R1,);

IMPR_TABLE(TABLE=TRX_R1,);

#########################################################"

TMYA4_D1=POST_RELEVE_T(ACTION=(_F(OPERATION='EXTRACTION',
                                 INTITULE='A4MY',
                                 RESULTAT=RESU_D1,
                                 NOM_CHAM='FORC_NODA',
                                 GROUP_NO='A4',
                                 NOM_CMP='DRY',),
                                ),);

TMYA4_D1=CALC_TABLE(reuse =TMYA4_D1,
               TABLE=TMYA4_D1,
               ACTION=(_F(
                          OPERATION = 'FILTRE',
                          NOM_PARA  = 'NUME_ORDRE',
                          CRIT_COMP = 'GT',
                          VALE    = 0,
                         ),),);

TMYA2_D1=POST_RELEVE_T(ACTION=(_F(OPERATION='EXTRACTION',
                                 INTITULE='A2MY',
                                 RESULTAT=RESU_D1,
                                 NOM_CHAM='FORC_NODA',
                                 GROUP_NO='A2',
                                 NOM_CMP='DRY',),),);

TMYA2_D1=CALC_TABLE(reuse =TMYA2_D1,
               TABLE=TMYA2_D1,
               ACTION=(_F(
                          OPERATION = 'FILTRE',
                          NOM_PARA  = 'NUME_ORDRE',
                          CRIT_COMP = 'GT',
                          VALE    = 0,
                         ),),);

TMYA6_D1=POST_RELEVE_T(ACTION=(_F(OPERATION='EXTRACTION',
                                 INTITULE='A6MY',
                                 RESULTAT=RESU_D1,
                                 NOM_CHAM='FORC_NODA',
                                 GROUP_NO='A6',
                                 NOM_CMP='DRY',),),);


TMYA6_D1=CALC_TABLE(reuse =TMYA6_D1,
               TABLE=TMYA6_D1,
               ACTION=(_F(
                          OPERATION = 'FILTRE',
                          NOM_PARA  = 'NUME_ORDRE',
                          CRIT_COMP = 'GT',
                          VALE    = 0,
                         ),),);

TMYA2_D1=CALC_TABLE(reuse =TMYA2_D1,
                    TABLE=TMYA2_D1,
                    ACTION=(_F(OPERATION='EXTR',
                               NOM_PARA=('INST','DRY',),),
                            _F(OPERATION='RENOMME',
                               NOM_PARA=('DRY','MYA2',),),),);

TMYA4_D1=CALC_TABLE(reuse =TMYA4_D1,
                    TABLE=TMYA4_D1,
                    ACTION=(_F(OPERATION='EXTR',
                               NOM_PARA=('INST','DRY',),),
                            _F(OPERATION='RENOMME',
                               NOM_PARA=('DRY','MYA4',),),),);

TMYA6_D1=CALC_TABLE(reuse =TMYA6_D1,
                    TABLE=TMYA6_D1,
                    ACTION=(_F(OPERATION='EXTR',
                               NOM_PARA=('INST','DRY',),),
                            _F(OPERATION='RENOMME',
                               NOM_PARA=('DRY','MYA6',),),),);

TMY_D1=CALC_TABLE(TABLE=TMYA2_D1,
                  ACTION=(_F(OPERATION='COMB',
                             TABLE=TMYA4_D1,
                             NOM_PARA='INST',),
                          _F(OPERATION='COMB',
                             TABLE=TMYA6_D1,
                             NOM_PARA='INST',),
                          _F(OPERATION='OPER',
                             FORMULE=SUM_MY,
                             NOM_PARA='MYD',),
                          _F(OPERATION='EXTR',
                             NOM_PARA=('INST','MYD',),),),);

DETRUIRE(CONCEPT=_F(NOM=(TMYA2_D1,TMYA4_D1,TMYA6_D1,),),);

TRX_D1=POST_RELEVE_T(ACTION=(_F(OPERATION='EXTRACTION',
                               INTITULE='A4RX',
                               RESULTAT=RESU_D1,
                               NOM_CHAM='DEPL',
                               GROUP_NO='A4',
                               NOM_CMP='DRX',),
                              ),);

TRX_D1=CALC_TABLE(reuse =TRX_D1,
               TABLE=TRX_D1,
               ACTION=(_F(
                          OPERATION = 'FILTRE',
                          NOM_PARA  = 'NUME_ORDRE',
                          CRIT_COMP = 'GT',
                          VALE    = 0,
                         ),),);

TRX_D1=CALC_TABLE(reuse =TRX_D1,
                  TABLE=TRX_D1,
                  ACTION=(_F(OPERATION='EXTR',
                             NOM_PARA=('INST','DRX',),),
                          _F(OPERATION='RENOMME',
                             NOM_PARA=('DRX','RXD',),),),);

IMPR_TABLE(TABLE=TMY_D1,);

IMPR_TABLE(TABLE=TRX_D1,);

IMPR_TABLE(TABLE=TD_D1,);

###############################################################
TMYA4_G1=POST_RELEVE_T(ACTION=(_F(OPERATION='EXTRACTION',
                                 INTITULE='A4MY',
                                 RESULTAT=RESU_G1,
                                 NOM_CHAM='FORC_NODA',
                                 GROUP_NO='A4',
                                 NOM_CMP='DRY',),
                                ),);

TMYA4_G1=CALC_TABLE(reuse =TMYA4_G1,
               TABLE=TMYA4_G1,
               ACTION=(_F(
                          OPERATION = 'FILTRE',
                          NOM_PARA  = 'NUME_ORDRE',
                          CRIT_COMP = 'GT',
                          VALE    = 0,
                         ),),);

TMYA2_G1=POST_RELEVE_T(ACTION=(_F(OPERATION='EXTRACTION',
                                 INTITULE='A2MY',
                                 RESULTAT=RESU_G1,
                                 NOM_CHAM='FORC_NODA',
                                 GROUP_NO='A2',
                                 NOM_CMP='DRY',),),);

TMYA2_G1=CALC_TABLE(reuse =TMYA2_G1,
               TABLE=TMYA2_G1,
               ACTION=(_F(
                          OPERATION = 'FILTRE',
                          NOM_PARA  = 'NUME_ORDRE',
                          CRIT_COMP = 'GT',
                          VALE    = 0,
                         ),),);

TMYA6_G1=POST_RELEVE_T(ACTION=(_F(OPERATION='EXTRACTION',
                                 INTITULE='A6MY',
                                 RESULTAT=RESU_G1,
                                 NOM_CHAM='FORC_NODA',
                                 GROUP_NO='A6',
                                 NOM_CMP='DRY',),),);


TMYA6_G1=CALC_TABLE(reuse =TMYA6_G1,
               TABLE=TMYA6_G1,
               ACTION=(_F(
                          OPERATION = 'FILTRE',
                          NOM_PARA  = 'NUME_ORDRE',
                          CRIT_COMP = 'GT',
                          VALE    = 0,
                         ),),);

TMYA2_G1=CALC_TABLE(reuse =TMYA2_G1,
                    TABLE=TMYA2_G1,
                    ACTION=(_F(OPERATION='EXTR',
                               NOM_PARA=('INST','DRY',),),
                            _F(OPERATION='RENOMME',
                               NOM_PARA=('DRY','MYA2',),),),);

TMYA4_G1=CALC_TABLE(reuse =TMYA4_G1,
                    TABLE=TMYA4_G1,
                    ACTION=(_F(OPERATION='EXTR',
                               NOM_PARA=('INST','DRY',),),
                            _F(OPERATION='RENOMME',
                               NOM_PARA=('DRY','MYA4',),),),);

TMYA6_G1=CALC_TABLE(reuse =TMYA6_G1,
                    TABLE=TMYA6_G1,
                    ACTION=(_F(OPERATION='EXTR',
                               NOM_PARA=('INST','DRY',),),
                            _F(OPERATION='RENOMME',
                               NOM_PARA=('DRY','MYA6',),),),);

TMY_G1=CALC_TABLE(TABLE=TMYA2_G1,
                  ACTION=(_F(OPERATION='COMB',
                             TABLE=TMYA4_G1,
                             NOM_PARA='INST',),
                          _F(OPERATION='COMB',
                             TABLE=TMYA6_G1,
                             NOM_PARA='INST',),
                          _F(OPERATION='OPER',
                             FORMULE=SUM_MY,
                             NOM_PARA='MYG',),
                          _F(OPERATION='EXTR',
                             NOM_PARA=('INST','MYG',),),),);

DETRUIRE(CONCEPT=_F(NOM=(TMYA2_G1,TMYA4_G1,TMYA6_G1,),),);

TRX_G1=POST_RELEVE_T(ACTION=(_F(OPERATION='EXTRACTION',
                               INTITULE='A4RX',
                               RESULTAT=RESU_G1,
                               NOM_CHAM='DEPL',
                               GROUP_NO='A4',
                               NOM_CMP='DRX',),
                              ),);

TRX_G1=CALC_TABLE(reuse =TRX_G1,
               TABLE=TRX_G1,
               ACTION=(_F(
                          OPERATION = 'FILTRE',
                          NOM_PARA  = 'NUME_ORDRE',
                          CRIT_COMP = 'GT',
                          VALE    = 0,
                         ),),);

TRX_G1=CALC_TABLE(reuse =TRX_G1,
                  TABLE=TRX_G1,
                  ACTION=(_F(OPERATION='EXTR',
                             NOM_PARA=('INST','DRX',),),
                          _F(OPERATION='RENOMME',
                             NOM_PARA=('DRX','RXG',),),),);

IMPR_TABLE(TABLE=TMY_G1,);

IMPR_TABLE(TABLE=TRX_G1,);

IMPR_TABLE(TABLE=TD_G1,);
###################################################################"

DREL_MYG = FORMULE(VALE='(MYG-MYD)/MYD',
                  NOM_PARA=('MYD','MYG',),);

DREL_RXG = FORMULE(VALE='(RXG-RXD)/RXD',
                  NOM_PARA=('RXD','RXG',),);

D_MY_1G=CALC_TABLE(TABLE=TMY_D1,
                  ACTION=(_F(OPERATION='COMB',
                             TABLE=TMY_G1,
                             NOM_PARA='INST',),
                          _F(OPERATION='FILTRE',
                             NOM_PARA='MY',
                             CRIT_COMP='NE',
                             VALE=0.0,),
                          _F(OPERATION='OPER',
                             FORMULE=DREL_MYG,
                             NOM_PARA='MYG_MYD',),
                         ),
                  );

D_RX_1G=CALC_TABLE(TABLE=TRX_D1,
                  ACTION=(_F(OPERATION='COMB',
                             TABLE=TRX_G1,
                             NOM_PARA='INST',),
                          _F(OPERATION='FILTRE',
                             NOM_PARA='RX',
                             CRIT_COMP='NE',
                             VALE=0.0,),
                          _F(OPERATION='OPER',
                             FORMULE=DREL_RXG,
                             NOM_PARA='RXG_RXD',),
                         ),
                  );

DREL_MY = FORMULE(VALE='(MYG-MY)/MY',
                  NOM_PARA=('MY','MYG',),);

DREL_RX = FORMULE(VALE='(RXG-RX)/RX',
                  NOM_PARA=('RX','RXG',),);

D_MY_1=CALC_TABLE(TABLE=TMY_R1,
                  ACTION=(_F(OPERATION='COMB',
                             TABLE=TMY_G1,
                             NOM_PARA='INST',),
                          _F(OPERATION='FILTRE',
                             NOM_PARA='MY',
                             CRIT_COMP='NE',
                             VALE=0.0,),
                          _F(OPERATION='OPER',
                             FORMULE=DREL_MY,
                             NOM_PARA='MYG_MY',),
                         ),
                  );

D_RX_1=CALC_TABLE(TABLE=TRX_R1,
                  ACTION=(_F(OPERATION='COMB',
                             TABLE=TRX_G1,
                             NOM_PARA='INST',),
                          _F(OPERATION='FILTRE',
                             NOM_PARA='RX',
                             CRIT_COMP='NE',
                             VALE=0.0,),
                          _F(OPERATION='OPER',
                             FORMULE=DREL_RX,
                             NOM_PARA='RXG_RX',),
                         ),
                  );

IMPR_TABLE(TABLE=D_MY_1,);
IMPR_TABLE(TABLE=D_RX_1,);

#----- TRACTION - PHASE ELASTIQUE -----

TEST_TABLE(CRITERE='ABSOLU',
           VALE_CALC=1.0150852873324,

           NOM_PARA='FXG_FX',
           TABLE=D_FX_1,
           FILTRE=_F(NOM_PARA='INST',
                     VALE=0.25,),
           )

TEST_TABLE(CRITERE='ABSOLU',
           VALE_CALC=2.5001622125911,

           NOM_PARA='DYG_DY',
           TABLE=D_DY_1,
           FILTRE=_F(NOM_PARA='INST',
                     VALE=0.25,),
           )

#----- TRACTION - PHASE ENDOMMAGEMENT -----

TEST_TABLE(CRITERE='ABSOLU',
           VALE_CALC=1.4922915016156,

           NOM_PARA='FXG_FX',
           TABLE=D_FX_1,
           FILTRE=_F(NOM_PARA='INST',
                     VALE=1.0,),
           )

#----- TRACTION - PHASE DECHARGEMENT -----

TEST_TABLE(CRITERE='ABSOLU',
           VALE_CALC=1.4922917330351,

           NOM_PARA='FXG_FX',
           TABLE=D_FX_1,
           FILTRE=_F(NOM_PARA='INST',
                     VALE=1.5,),
           )

#----- COMPRESSION - PHASE CHARGEMENT(TOUJOURS ELASTIQUE) -----

TEST_TABLE(CRITERE='ABSOLU',
           VALE_CALC=-0.11341859370178,

           NOM_PARA='FXG_FX',
           TABLE=D_FX_1,
           FILTRE=_F(NOM_PARA='INST',
                     VALE=2.5,),
           )

#----- COMPRESSION - PHASE DECHARGEMENT -----

TEST_TABLE(CRITERE='ABSOLU',
           VALE_CALC=-0.12749942337937,

           NOM_PARA='FXG_FX',
           TABLE=D_FX_1,
           FILTRE=_F(NOM_PARA='INST',
                     VALE=3.5,),
           )

#----- TRACTION - PHASE ELASTIQUE -----

TEST_TABLE(CRITERE='ABSOLU',
           VALE_CALC=2.7563414594138E-03,

           NOM_PARA='FXG_FXD',
           TABLE=D_FX_1G,
           FILTRE=_F(NOM_PARA='INST',
                     VALE=0.05,),
           )

TEST_TABLE(CRITERE='ABSOLU',
           VALE_CALC=-0.050642589552913,

           NOM_PARA='DYG_DYD',
           TABLE=D_DY_1G,
           FILTRE=_F(NOM_PARA='INST',
                     VALE=0.05,),
           )

#----- TRACTION - PHASE ENDOMMAGEMENT -----

TEST_TABLE(CRITERE='ABSOLU',
           VALE_CALC=0.068260977873661,

           NOM_PARA='FXG_FXD',
           TABLE=D_FX_1G,
           FILTRE=_F(NOM_PARA='INST',
                     VALE=0.25,),
           )

TEST_TABLE(CRITERE='ABSOLU',
           VALE_CALC=-0.45474513975158,

           NOM_PARA='DYG_DYD',
           TABLE=D_DY_1G,
           FILTRE=_F(NOM_PARA='INST',
                     VALE=0.25,),
           )

#----- TRACTION - PHASE GLISSEMENT -----

TEST_TABLE(CRITERE='ABSOLU',
           VALE_CALC=0.30775262280036,

           NOM_PARA='FXG_FXD',
           TABLE=D_FX_1G,
           FILTRE=_F(NOM_PARA='INST',
                     VALE=0.8,),
           )

TEST_TABLE(CRITERE='ABSOLU',
           VALE_CALC=-0.72153684933718,

           NOM_PARA='DYG_DYD',
           TABLE=D_DY_1G,
           FILTRE=_F(NOM_PARA='INST',
                     VALE=0.8,),
           )

#----- TRACTION - PHASE DECHARGEMENT -----

TEST_TABLE(CRITERE='ABSOLU',
           VALE_CALC=0.57485873070132,

           NOM_PARA='FXG_FXD',
           TABLE=D_FX_1G,
           FILTRE=_F(NOM_PARA='INST',
                     VALE=1.5,),
           )

TEST_TABLE(CRITERE='ABSOLU',
           VALE_CALC=-0.74772923742187,

           NOM_PARA='DYG_DYD',
           TABLE=D_DY_1G,
           FILTRE=_F(NOM_PARA='INST',
                     VALE=1.5,),
           )

#----- COMPRESSION - PHASE CHARGEMENT -----

TEST_TABLE(CRITERE='ABSOLU',
           VALE_CALC=0.058388543320320,

           NOM_PARA='FXG_FXD',
           TABLE=D_FX_1G,
           FILTRE=_F(NOM_PARA='INST',
                     VALE=2.5,),
           )

TEST_TABLE(CRITERE='ABSOLU',
           VALE_CALC=-0.48069595613936,

           NOM_PARA='DYG_DYD',
           TABLE=D_DY_1G,
           FILTRE=_F(NOM_PARA='INST',
                     VALE=2.5,),
           )

#----- COMPRESSION - PHASE DECHARGEMENT -----

TEST_TABLE(CRITERE='ABSOLU',
           VALE_CALC=0.20446769609005,

           NOM_PARA='FXG_FXD',
           TABLE=D_FX_1G,
           FILTRE=_F(NOM_PARA='INST',
                     VALE=3.5,),
           )

TEST_TABLE(CRITERE='ABSOLU',
           VALE_CALC=-0.62787031688177,

           NOM_PARA='DYG_DYD',
           TABLE=D_DY_1G,
           FILTRE=_F(NOM_PARA='INST',
                     VALE=3.5,),
           )
##----- FLEXION POSITIVE - PHASE ELASTIQUE -----

TEST_TABLE(CRITERE='ABSOLU',
           VALE_CALC=0.059159303456099,
           NOM_PARA='MYG_MYD',
           TABLE=D_MY_1G,
           FILTRE=_F(NOM_PARA='INST',
                     VALE=0.05,),
           )

TEST_TABLE(CRITERE='ABSOLU',
           VALE_CALC=-0.11779859999167,
           NOM_PARA='RXG_RXD',
           TABLE=D_RX_1G,
           FILTRE=_F(NOM_PARA='INST',
                     VALE=0.05,),
           )

##----- FLEXION POSITIVE - PHASE ENDOMMAGEMENT -----

TEST_TABLE(CRITERE='ABSOLU',
           VALE_CALC=-0.032606970870056,
           NOM_PARA='MYG_MYD',
           TABLE=D_MY_1G,
           FILTRE=_F(NOM_PARA='INST',
                     VALE=0.25,),
           )

TEST_TABLE(CRITERE='ABSOLU',
           VALE_CALC=-0.20892630903024,
           NOM_PARA='RXG_RXD',
           TABLE=D_RX_1G,
           FILTRE=_F(NOM_PARA='INST',
                     VALE=0.25,),
           )

##----- FLEXION POSITIVE - PHASE GLISSEMENT -----

TEST_TABLE(CRITERE='ABSOLU',
           VALE_CALC=0.033441635724487,
           NOM_PARA='MYG_MYD',
           TABLE=D_MY_1G,
           FILTRE=_F(NOM_PARA='INST',
                     VALE=0.8,),
           )

TEST_TABLE(CRITERE='ABSOLU',
           VALE_CALC=-0.17095043576290,
           NOM_PARA='RXG_RXD',
           TABLE=D_RX_1G,
           FILTRE=_F(NOM_PARA='INST',
                     VALE=0.8,),
           )

##----- FLEXION POSITIVE - PHASE DECHARGEMENT -----

TEST_TABLE(CRITERE='ABSOLU',
           VALE_CALC=0.080333044293762,
           NOM_PARA='MYG_MYD',
           TABLE=D_MY_1G,
           FILTRE=_F(NOM_PARA='INST',
                     VALE=1.5,),
           )

TEST_TABLE(CRITERE='ABSOLU',
           VALE_CALC=-0.14014624099040,
           NOM_PARA='RXG_RXD',
           TABLE=D_RX_1G,
           FILTRE=_F(NOM_PARA='INST',
                     VALE=1.5,),
           )

##----- FLEXION NEGATIVE - PHASE ELASTIQUE -----

TEST_TABLE(CRITERE='ABSOLU',
           VALE_CALC=-0.14526957562821,

           NOM_PARA='MYG_MYD',
           TABLE=D_MY_1G,
           FILTRE=_F(NOM_PARA='INST',
                     VALE=2.05,),
           )

TEST_TABLE(CRITERE='ABSOLU',
           VALE_CALC=-0.29746658808420,

           NOM_PARA='RXG_RXD',
           TABLE=D_RX_1G,
           FILTRE=_F(NOM_PARA='INST',
                     VALE=2.05,),
           )

##----- FLEXION NEGATIVE - PHASE ENDOMMAGEMENT/GLISSEMENT -----

TEST_TABLE(CRITERE='ABSOLU',
           VALE_CALC=0.055303323268696,

           NOM_PARA='MYG_MYD',
           TABLE=D_MY_1G,
           FILTRE=_F(NOM_PARA='INST',
                     VALE=3.0,),
           )

TEST_TABLE(CRITERE='ABSOLU',
           VALE_CALC=-0.16628119128077,

           NOM_PARA='RXG_RXD',
           TABLE=D_RX_1G,
           FILTRE=_F(NOM_PARA='INST',
                     VALE=3.0,),
           )

##----- FLEXION NEGATIVE - PHASE DECHARGEMENT -----

TEST_TABLE(CRITERE='ABSOLU',
           VALE_CALC=0.089687000192258,

           NOM_PARA='MYG_MYD',
           TABLE=D_MY_1G,
           FILTRE=_F(NOM_PARA='INST',
                     VALE=3.5,),
           )

TEST_TABLE(CRITERE='ABSOLU',
           VALE_CALC=-0.14107875895967,

           NOM_PARA='RXG_RXD',
           TABLE=D_RX_1G,
           FILTRE=_F(NOM_PARA='INST',
                     VALE=3.5,),
           )

#----- FLEXION POSITIVE - PHASE ELASTIQUE -----

TEST_TABLE(CRITERE='ABSOLU',
           VALE_CALC=1.8255803933022,

           NOM_PARA='MYG_MY',
           TABLE=D_MY_1,
           FILTRE=_F(NOM_PARA='INST',
                     VALE=0.25,),
           )

TEST_TABLE(CRITERE='ABSOLU',
           VALE_CALC=10.485237075586,

           NOM_PARA='RXG_RX',
           TABLE=D_RX_1,
           FILTRE=_F(NOM_PARA='INST',
                     VALE=0.25,),
           )

#----- FLEXION POSITIVE - PHASE ENDOMMAGEMENT -----

TEST_TABLE(CRITERE='ABSOLU',
           VALE_CALC=1.2675389030197,

           NOM_PARA='MYG_MY',
           TABLE=D_MY_1,
           FILTRE=_F(NOM_PARA='INST',
                     VALE=1.0,),
           )

#----- FLEXION POSITIVE - PHASE DECHARGEMENT -----

TEST_TABLE(CRITERE='ABSOLU',
           VALE_CALC=1.267538816986,

           NOM_PARA='MYG_MY',
           TABLE=D_MY_1,
           FILTRE=_F(NOM_PARA='INST',
                     VALE=1.5,),
           )

#----- FLEXION NEGATIVE - PHASE ELASTIQUE -----

TEST_TABLE(CRITERE='ABSOLU',
           VALE_CALC=-0.42527345089352,

           NOM_PARA='MYG_MY',
           TABLE=D_MY_1,
           FILTRE=_F(NOM_PARA='INST',
                     VALE=2.25,),
           )


#----- FLEXION NEGATIVE - PHASE ENDOMMAGEMENT -----

TEST_TABLE(CRITERE='ABSOLU',
           VALE_CALC=-0.39900876814297,

           NOM_PARA='MYG_MY',
           TABLE=D_MY_1,
           FILTRE=_F(NOM_PARA='INST',
                     VALE=3.0,),
           )

#----- FLEXION NEGATIVE - PHASE DECHARGEMENT -----

TEST_TABLE(CRITERE='ABSOLU',
           VALE_CALC=-0.39900876735240,

           NOM_PARA='MYG_MY',
           TABLE=D_MY_1,
           FILTRE=_F(NOM_PARA='INST',
                     VALE=3.5,),
           )

FIN();
