# MODIF  DATE 30/06/2004   AUTEUR MCOURTOI M.COURTOIS 
# RESPONSABLE JMBHH01 J.M.PROIX
# TITRE CLAQUAGE  CALOTTE CYLINDRIQUE SHB8  
#            CONFIGURATION MANAGEMENT OF EDF VERSION
# ======================================================================
# COPYRIGHT (C) 1991 - 2003  EDF R&D                  WWW.CODE-ASTER.ORG
# THIS PROGRAM IS FREE SOFTWARE; YOU CAN REDISTRIBUTE IT AND/OR MODIFY  
# IT UNDER THE TERMS OF THE GNU GENERAL PUBLIC LICENSE AS PUBLISHED BY  
# THE FREE SOFTWARE FOUNDATION; EITHER VERSION 2 OF THE LICENSE, OR     
# (AT YOUR OPTION) ANY LATER VERSION.                                                    
#                                                                       
# THIS PROGRAM IS DISTRIBUTED IN THE HOPE THAT IT WILL BE USEFUL, BUT   
# WITHOUT ANY WARRANTY; WITHOUT EVEN THE IMPLIED WARRANTY OF            
# MERCHANTABILITY OR FITNESS FOR A PARTICULAR PURPOSE. SEE THE GNU      
# GENERAL PUBLIC LICENSE FOR MORE DETAILS.                              
#                                                                       
# YOU SHOULD HAVE RECEIVED A COPY OF THE GNU GENERAL PUBLIC LICENSE     
# ALONG WITH THIS PROGRAM; IF NOT, WRITE TO EDF R&D CODE_ASTER,         
#    1 AVENUE DU GENERAL DE GAULLE, 92141 CLAMART CEDEX, FRANCE.        
# ======================================================================
# ELEMENT SHB8PS - A.COMBESCURE - S.BAGUET -INSA LYON 2003


DEBUT(CODE=_F(NOM='SSNS101A',NIV_PUB_WEB='INTERNET',VISU_EFICAS='NON',),PAR_LOT='NON');

PRE_GIBI();

MAIL=LIRE_MAILLAGE();

MAIL=MODI_MAILLAGE(reuse =MAIL,
                   MAILLAGE=MAIL,
                   ORIE_SHB8=_F(GROUP_MA='GEOTOT',),);
#
#
#


MAIL=DEFI_GROUP(reuse =MAIL,
                MAILLAGE=MAIL,
                CREA_GROUP_NO=(_F(GROUP_MA='SU0',),
                               _F(GROUP_MA='L31290',),
                               _F(GROUP_MA='SUSUP',),),);

MODMECA=AFFE_MODELE(MAILLAGE=MAIL,
                    AFFE=_F(TOUT='OUI',
                            PHENOMENE='MECANIQUE',
                            MODELISATION='SHB8',),);


TRAC=DEFI_FONCTION(NOM_PARA='EPSI',
                   VALE=(1.e-03,3.102,
                         0.1   ,33.5,
                         1.    ,150,
                         ),);

MAT=DEFI_MATERIAU(ELAS=_F(E=3102.75,
                          NU=0.3,),
                  TRACTION=_F(SIGM=TRAC,),
                  );


CHM=AFFE_MATERIAU(MAILLAGE=MAIL,
                  AFFE=_F(TOUT='OUI',
                          MATER=MAT,),);

CHARGT=AFFE_CHAR_MECA(MODELE=MODMECA,
                      DDL_IMPO=(_F(GROUP_MA='SU0',
                                   DY=0.0,),
                                _F(GROUP_MA='L31290',
                                   DX=0.0,),
                                _F(GROUP_MA='L31290',
                                   DY=0.0,),
                                _F(GROUP_MA='L31290',
                                   DZ=0.0,),
                                _F(GROUP_MA='SUSUP',
                                   DZ=0.0,),),
                      FORCE_NODALE=_F(GROUP_NO='P2',
                                      FX=-0.25,),);



D_FONC=DEFI_FONCTION(NOM_PARA='INST',
                     VALE=(0.0,0.0,10000.0,10000.0,),);


LISTPILO=DEFI_LIST_REEL(DEBUT=0.0,
                        INTERVALLE=_F(JUSQU_A=45,
                                      NOMBRE=45,),);


NONLIN=STAT_NON_LINE(MODELE=MODMECA,
                     CHAM_MATER=CHM,
                     EXCIT=_F(CHARGE=CHARGT,
                              TYPE_CHARGE='FIXE_PILO',),
                     COMP_INCR=_F(RELATION='ELAS',
                                  DEFORMATION='GREEN',
                                  TOUT='OUI',),
                     INCREMENT=_F(LIST_INST=LISTPILO,
                     SUBD_PAS=4,
                     SUBD_PAS_MINI=0.000001),
                     NEWTON=_F(REAC_ITER=0,),
                     PILOTAGE=_F(TYPE='DDL_IMPO',
                                 COEF_MULT=-1.0,
                                 GROUP_NO='P2',
                                 NOM_CMP='DX',),
                     CONVERGENCE=_F(RESI_GLOB_RELA=1e-08,
                                    ITER_GLOB_MAXI=25,),);

NONLIN=CALC_ELEM(reuse=NONLIN, RESULTAT=NONLIN,
                    OPTION=('SIEF_ELNO_ELGA','EQUI_ELGA_SIGM','EQUI_ELNO_SIGM'),
                    );
                    
                    
IMPR_RESU(RESU=_F(RESULTAT=NONLIN,VALE_MAX='OUI',NUME_ORDRE=1))


TABDX=POST_RELEVE_T(ACTION=_F(INTITULE='F',
                              GROUP_NO='P2',
                              RESULTAT=NONLIN,
                              NOM_CHAM='DEPL',
                              TOUT_ORDRE='OUI',
                              NOM_CMP='DX',
                              OPERATION='EXTRACTION',),);

FDX=RECU_FONCTION(TABLE=TABDX,INTERPOL='LIN',
                  PARA_X='INST',
                  PARA_Y='DX',);

FETA=RECU_FONCTION(RESULTAT=NONLIN,INTERPOL='LIN',PROL_GAUCHE='CONSTANT',
                   NOM_PARA_RESU='ETA_PILOTAGE',);

# TEST DE NON REGRESSION

TEST_FONCTION(VALEUR=(
_F(FONCTION=FETA,REFERENCE='NON_REGRESSION', VALE_PARA = 1.00000E+00,VALE_REFE=4.32117E+02 ),
_F(FONCTION=FETA,REFERENCE='NON_REGRESSION', VALE_PARA = 2.00000E+00,VALE_REFE=8.34401E+02 ),
_F(FONCTION=FETA,REFERENCE='NON_REGRESSION', VALE_PARA = 3.00000E+00,VALE_REFE=1.20919E+03 ),
_F(FONCTION=FETA,REFERENCE='NON_REGRESSION', VALE_PARA = 4.00000E+00,VALE_REFE=1.55870E+03 ),
_F(FONCTION=FETA,REFERENCE='NON_REGRESSION', VALE_PARA = 5.00000E+00,VALE_REFE=1.88499E+03 ),
_F(FONCTION=FETA,REFERENCE='NON_REGRESSION', VALE_PARA = 6.00000E+00,VALE_REFE=2.18993E+03 ),
_F(FONCTION=FETA,REFERENCE='NON_REGRESSION', VALE_PARA = 7.00000E+00,VALE_REFE=2.47513E+03 ),
_F(FONCTION=FETA,REFERENCE='NON_REGRESSION', VALE_PARA = 8.00000E+00,VALE_REFE=2.74194E+03 ),
_F(FONCTION=FETA,REFERENCE='NON_REGRESSION', VALE_PARA = 9.00000E+00,VALE_REFE=2.99133E+03 ),
_F(FONCTION=FETA,REFERENCE='NON_REGRESSION', VALE_PARA = 1.00000E+01,VALE_REFE=3.22392E+03 ),
_F(FONCTION=FETA,REFERENCE='NON_REGRESSION', VALE_PARA = 1.10000E+01,VALE_REFE=3.43983E+03 ),
_F(FONCTION=FETA,REFERENCE='NON_REGRESSION', VALE_PARA = 1.20000E+01,VALE_REFE=3.63865E+03 ),
_F(FONCTION=FETA,REFERENCE='NON_REGRESSION', VALE_PARA = 1.30000E+01,VALE_REFE=3.81934E+03 ),
_F(FONCTION=FETA,REFERENCE='NON_REGRESSION', VALE_PARA = 1.40000E+01,VALE_REFE=3.98007E+03 ),
_F(FONCTION=FETA,REFERENCE='NON_REGRESSION', VALE_PARA = 1.50000E+01,VALE_REFE=4.11808E+03 ),
_F(FONCTION=FETA,REFERENCE='NON_REGRESSION', VALE_PARA = 1.60000E+01,VALE_REFE=4.22949E+03 ),
_F(FONCTION=FETA,REFERENCE='NON_REGRESSION', VALE_PARA = 1.70000E+01,VALE_REFE=4.30899E+03 ),
_F(FONCTION=FETA,REFERENCE='NON_REGRESSION', VALE_PARA = 1.80000E+01,VALE_REFE=4.34962E+03 ),
_F(FONCTION=FETA,REFERENCE='NON_REGRESSION', VALE_PARA = 1.90000E+01,VALE_REFE=4.34249E+03 ),
_F(FONCTION=FETA,REFERENCE='NON_REGRESSION', VALE_PARA = 2.00000E+01,VALE_REFE=4.27684E+03 ),
# ... 25 like lines cut
            ),)
            
 # solution de reference INCA
          
INCA=DEFI_FONCTION(NOM_PARA='INST',INTERPOL='LIN',PROL_DROITE='CONSTANT',PROL_GAUCHE='CONSTANT',
                   VALE=(
                         # 0.000E+00, 0.000E+00,
                        #  4.313E-01, 1.889E+02,
                          8.633E-01, 3.724E+02,
                          1.289E+00, 5.471E+02,
                          1.712E+00, 7.154E+02,
                          2.134E+00, 8.777E+02,
                          2.553E+00, 1.034E+03,
                          2.970E+00, 1.185E+03,
                          3.384E+00, 1.331E+03,
                          3.796E+00, 1.472E+03,
                          4.205E+00, 1.607E+03,
                          4.611E+00, 1.739E+03,
                          5.015E+00, 1.866E+03,
                          5.415E+00, 1.988E+03,
                          5.812E+00, 2.106E+03,
                          6.207E+00, 2.221E+03,
                          6.598E+00, 2.332E+03,
                          6.986E+00, 2.439E+03,
                          7.371E+00, 2.542E+03,
                          7.753E+00, 2.643E+03,
# ... 80 like lines cut
                         ),);
                         
IMPR_COURBE(FICHIER='RESULTAT',
            FORMAT='EXCEL',
            COURBE=(_F(FONCTION=INCA,),
                    _F(FONCTION=FETA,),),);


DIFF=CALC_FONCTION(COMB=(
                          _F(  FONCTION = FETA, COEF =  1.), 
                          _F(  FONCTION = INCA, COEF = -1.), 
                          ) )

IMPR_COURBE(FICHIER='RESULTAT',
            FORMAT='EXCEL',
            COURBE=(_F(FONCTION=DIFF,),),);
                    
MAXINCA=CALC_FONCTION( MAX=_F(  FONCTION = INCA)    )

IMPR_TABLE(TABLE=MAXINCA)

TOLE=0.02*MAXINCA['MAXI',1]

# COMPARAISON A LA SOLUTION INCA

TEST_FONCTION(VALEUR=(
_F(FONCTION=DIFF,REFERENCE='SOURCE_EXTERNE', VALE_PARA = 2.00000E+00,VALE_REFE=0.,PRECISION=TOLE,CRITERE='ABSOLU',),
_F(FONCTION=DIFF,REFERENCE='SOURCE_EXTERNE', VALE_PARA = 3.00000E+00,VALE_REFE=0.,PRECISION=TOLE,CRITERE='ABSOLU',),
_F(FONCTION=DIFF,REFERENCE='SOURCE_EXTERNE', VALE_PARA = 4.00000E+00,VALE_REFE=0.,PRECISION=TOLE,CRITERE='ABSOLU',),
_F(FONCTION=DIFF,REFERENCE='SOURCE_EXTERNE', VALE_PARA = 5.00000E+00,VALE_REFE=0.,PRECISION=TOLE,CRITERE='ABSOLU',),
_F(FONCTION=DIFF,REFERENCE='SOURCE_EXTERNE', VALE_PARA = 6.00000E+00,VALE_REFE=0.,PRECISION=TOLE,CRITERE='ABSOLU',),
_F(FONCTION=DIFF,REFERENCE='SOURCE_EXTERNE', VALE_PARA = 7.00000E+00,VALE_REFE=0.,PRECISION=TOLE,CRITERE='ABSOLU',),
_F(FONCTION=DIFF,REFERENCE='SOURCE_EXTERNE', VALE_PARA = 8.00000E+00,VALE_REFE=0.,PRECISION=TOLE,CRITERE='ABSOLU',),
_F(FONCTION=DIFF,REFERENCE='SOURCE_EXTERNE', VALE_PARA = 9.00000E+00,VALE_REFE=0.,PRECISION=TOLE,CRITERE='ABSOLU',),
_F(FONCTION=DIFF,REFERENCE='SOURCE_EXTERNE', VALE_PARA = 1.00000E+01,VALE_REFE=0.,PRECISION=TOLE,CRITERE='ABSOLU',),
_F(FONCTION=DIFF,REFERENCE='SOURCE_EXTERNE', VALE_PARA = 1.10000E+01,VALE_REFE=0.,PRECISION=TOLE,CRITERE='ABSOLU',),
_F(FONCTION=DIFF,REFERENCE='SOURCE_EXTERNE', VALE_PARA = 1.20000E+01,VALE_REFE=0.,PRECISION=TOLE,CRITERE='ABSOLU',),
_F(FONCTION=DIFF,REFERENCE='SOURCE_EXTERNE', VALE_PARA = 1.30000E+01,VALE_REFE=0.,PRECISION=TOLE,CRITERE='ABSOLU',),
_F(FONCTION=DIFF,REFERENCE='SOURCE_EXTERNE', VALE_PARA = 1.40000E+01,VALE_REFE=0.,PRECISION=TOLE,CRITERE='ABSOLU',),
_F(FONCTION=DIFF,REFERENCE='SOURCE_EXTERNE', VALE_PARA = 1.50000E+01,VALE_REFE=0.,PRECISION=TOLE,CRITERE='ABSOLU',),
_F(FONCTION=DIFF,REFERENCE='SOURCE_EXTERNE', VALE_PARA = 1.60000E+01,VALE_REFE=0.,PRECISION=TOLE,CRITERE='ABSOLU',),
_F(FONCTION=DIFF,REFERENCE='SOURCE_EXTERNE', VALE_PARA = 1.70000E+01,VALE_REFE=0.,PRECISION=TOLE,CRITERE='ABSOLU',),
_F(FONCTION=DIFF,REFERENCE='SOURCE_EXTERNE', VALE_PARA = 1.80000E+01,VALE_REFE=0.,PRECISION=TOLE,CRITERE='ABSOLU',),
_F(FONCTION=DIFF,REFERENCE='SOURCE_EXTERNE', VALE_PARA = 1.90000E+01,VALE_REFE=0.,PRECISION=TOLE,CRITERE='ABSOLU',),
_F(FONCTION=DIFF,REFERENCE='SOURCE_EXTERNE', VALE_PARA = 2.00000E+01,VALE_REFE=0.,PRECISION=TOLE,CRITERE='ABSOLU',),
            ),)
            


# ON VEUT TRACER LES COURBES
# CECI PLANTE POUR LE MOMENT 
#TINCA=CREA_TABLE(FONCTION=_F(FONCTION=INCA))
#TFETA=CREA_TABLE(FONCTION=_F(FONCTION=FETA))

liste1,liste2=INCA.Valeurs()
valmax1=max([abs(v) for v in liste2])

TINCA=CREA_TABLE(LISTE=(_F(LISTE_R=tuple(liste1),
                         PARA='INST'),
                      _F(LISTE_R=tuple(liste2),
                         PARA='TOUTRESU'))); 
                         
IMPR_TABLE(TABLE=TINCA)

liste01,liste02=FETA.Valeurs()

TFETA=CREA_TABLE(LISTE=(_F(LISTE_R=tuple(liste01),
                         PARA='INST'),
                      _F(LISTE_R=tuple(liste02),
                         PARA='ETA_PILO'))); 
IMPR_TABLE(TABLE=TFETA)

# calcul de l ecart maxi entre les deux courbes

lbid,lordo=DIFF.Valeurs()
valmax2=max([abs(v) for v in lordo])
   
valmax=valmax2/valmax1
print 'Valeur maxi fonction reference ',valmax1
print 'Valeur maxi fonction difference ',valmax2


FIN()

from Utilitai.courbes import COURBES

courb1=(TFETA,'INST',TFETA,'ETA_PILO','ASTER')
courb2=(TINCA,'INST',TINCA,'TOUTRESU','INCA')
listcourb=(courb1,courb2,)


interactif=COURBES(listcourb,titre='SSNS101',legx='INST',legy='FORCE')

STANLEY()          


FIN();

