# TITRE TEST NAPPE D'ARMATURE (MODELISATION GRILLE_MEMBRANE)
# ======================================================================
# COPYRIGHT (C) 1991 - 2012  EDF R&D                  WWW.CODE-ASTER.ORG
# THIS PROGRAM IS FREE SOFTWARE; YOU CAN REDISTRIBUTE IT AND/OR MODIFY
# IT UNDER THE TERMS OF THE GNU GENERAL PUBLIC LICENSE AS PUBLISHED BY
# THE FREE SOFTWARE FOUNDATION; EITHER VERSION 2 OF THE LICENSE, OR
# (AT YOUR OPTION) ANY LATER VERSION.
#
# THIS PROGRAM IS DISTRIBUTED IN THE HOPE THAT IT WILL BE USEFUL, BUT
# WITHOUT ANY WARRANTY; WITHOUT EVEN THE IMPLIED WARRANTY OF
# MERCHANTABILITY OR FITNESS FOR A PARTICULAR PURPOSE. SEE THE GNU
# GENERAL PUBLIC LICENSE FOR MORE DETAILS.
#
# YOU SHOULD HAVE RECEIVED A COPY OF THE GNU GENERAL PUBLIC LICENSE
# ALONG WITH THIS PROGRAM; IF NOT, WRITE TO EDF R&D CODE_ASTER,
#    1 AVENUE DU GENERAL DE GAULLE, 92141 CLAMART CEDEX, FRANCE.
# ======================================================================

DEBUT(CODE=_F(NIV_PUB_WEB='INTERNET'), DEBUG=_F(SDVERI='OUI'))

#-----------------------------------------------------------------------
# VALIDATION DE LA MODELISATION GRILLE_MEMBRANE AVEC DES MAILLES QUAD4
#-----------------------------------------------------------------------

MAIL=LIRE_MAILLAGE(   )

MAILTOT=CREA_MAILLAGE(MAILLAGE      = MAIL,
                      CREA_GROUP_MA = _F(
                               NOM         = 'GEOBB',
                               GROUP_MA    = 'GEOB',
                               PREF_MAILLE = 'B'))

#
# -----------------------------------------------------
# DEFINITION DES MATERIAUX
# -----------------------------------------------------
#

ACIER=DEFI_MATERIAU(
            ELAS=_F(  E = 2.E11,   NU = 0.0),
            ECRO_LINE=_F( D_SIGM_EPSI = 2.E10,   SY = 2.E11, )
                          )

BETON=DEFI_MATERIAU(
            ELAS=_F(  E = 2.E10,   NU = 0.2),
                          )

#
# -------------------------------------------------
# AFFECTATION DES MATERIAUX
# -------------------------------------------------
#
MATAF=AFFE_MATERIAU(    MAILLAGE=MAILTOT,
                          AFFE=(_F(  GROUP_MA = ('GEOB','GEOBB'),
                                 MATER = ACIER,),
                                _F(  GROUP_MA = ('GEO',),
                                 MATER = BETON,),
                               )
                      )

#
# -------------------------------------------------
# AFFECTATION DES MODELES
# -------------------------------------------------
#
LEMOD=AFFE_MODELE(    MAILLAGE=MAILTOT,     VERIF='MAILLE',
                        INFO=2,
                        AFFE=(_F(  GROUP_MA = ('GEOB','GEOBB'),
                               PHENOMENE = 'MECANIQUE',
                               MODELISATION = 'GRILLE_MEMBRANE'),
                              _F(  GROUP_MA = ('GEO',),
                               PHENOMENE = 'MECANIQUE',
                               MODELISATION = '3D'),
                             )
                      )

# -------------------------------------------------
# AFFECTATION DES CARACTERISTIQUES
# -------------------------------------------------
#
LACAR=AFFE_CARA_ELEM(    MODELE=LEMOD,
                       GRILLE=(_F( GROUP_MA = 'GEOB',
                                SECTION = .1,
                                ANGL_REP = (0., 0.0,),
                                EXCENTREMENT = 0.0,
                              ),
                              _F( GROUP_MA = 'GEOBB',
                                SECTION = .1,
                                ANGL_REP = (90.0, 0.0,),
                                EXCENTREMENT = 0.0,
                              ))
                        )

ZCHM=AFFE_CHAR_MECA(
             MODELE=LEMOD,
             DDL_IMPO=(
                       _F(  NOEUD = ('NO1','NO2','NO3','NO4'),
                          DZ = 0.,
                       ),
#                       _F(  NOEUD = ('NO2','NO3','NO5','NO8'),
#                          DZ = 0.,
#                       DRX = 0.,   DRY = 0.,   DRZ = 0.,
#                       ),
                       _F(  NOEUD = ('NO1','NO2','NO5','NO6'),
                          DY = 0.,
                       ),
                       _F(  NOEUD = ('NO1','NO4','NO5','NO8'),
                          DX = 0.,
                       ),
                       _F(  NOEUD = ('NO3','NO4','NO7','NO8'),
                          DY = 1.,
                       ),
                       _F(  NOEUD = ('NO3','NO2','NO6','NO7'),
                          DX = 1.,
                       ),)
                       )

f_inst=DEFI_FONCTION(NOM_PARA='INST',
                     VALE=(0.0,  0.0,  10.,  10.),);

#
# ----------------------------------------------
# CALCUL
# ----------------------------------------------
#


ZLIST=DEFI_LIST_REEL(   DEBUT=0.,
             INTERVALLE=(_F( JUSQU_A = 1.0,  NOMBRE = 1, ),
                         _F( JUSQU_A = 2.0,  NOMBRE = 1, ),
                         _F( JUSQU_A =10.0,  NOMBRE = 1, ),),
           )

LEDEP=STAT_NON_LINE(
                            MODELE=LEMOD,
                        CHAM_MATER=MATAF,
                         CARA_ELEM=LACAR,
                             EXCIT=_F(
                CHARGE = ZCHM,
                FONC_MULT=f_inst
                ),
                COMPORTEMENT=(_F(GROUP_MA=('GEOB','GEOBB'),
                              RELATION = 'GRILLE_ISOT_LINE'),
                           _F(GROUP_MA=('GEO',),
                              RELATION = 'ELAS',)
                ),
                         INCREMENT=_F(
                LIST_INST = ZLIST,
                ),
                            NEWTON=_F(
                MATRICE = 'TANGENTE',
                REAC_ITER = 1,
                ),
                       CONVERGENCE=_F(
                RESI_GLOB_MAXI = 1.E-3,
                ITER_GLOB_MAXI = 30,
                ),
              )


LEDEP=CALC_CHAMP( reuse = LEDEP,
                 FORCE='FORC_NODA',
                 RESULTAT   = LEDEP,
               )

#
# -------------------------------------------------
# POST TRAITEMENT DES RESULTATS
# -------------------------------------------------
#

TEST_RESU(RESU=(_F(INST=1.0,
                   REFERENCE='AUTRE_ASTER',
                   RESULTAT=LEDEP,
                   NOM_CHAM='DEPL',
                   NOEUD='NO5',
                   NOM_CMP='DZ',
                   VALE_CALC=-0.705888532,
                   VALE_REFE=-0.70599000000000001,),
                _F(INST=1.0,
                   REFERENCE='AUTRE_ASTER',
                   RESULTAT=LEDEP,
                   NOM_CHAM='DEPL',
                   NOEUD='NO6',
                   NOM_CMP='DZ',
                   VALE_CALC=-0.481282861,
                   VALE_REFE=-0.48128300000000002,),
                _F(INST=1.0,
                   REFERENCE='AUTRE_ASTER',
                   RESULTAT=LEDEP,
                   NOM_CHAM='FORC_NODA',
                   NOEUD='NO1',
                   NOM_CMP='DX',
                   VALE_CALC=-6.35398411E+09,
                   VALE_REFE=-6.353980000E9,),
                _F(INST=1.0,
                   REFERENCE='AUTRE_ASTER',
                   RESULTAT=LEDEP,
                   NOM_CHAM='FORC_NODA',
                   NOEUD='NO1',
                   NOM_CMP='DY',
                   VALE_CALC=-6.06802781E+09,
                   VALE_REFE=-6.068030000E9,),
                _F(INST=1.0,
                   REFERENCE='AUTRE_ASTER',
                   RESULTAT=LEDEP,
                   NOM_CHAM='FORC_NODA',
                   NOEUD='NO1',
                   NOM_CMP='DZ',
                   VALE_CALC= 5.71912588E+08,
                   VALE_REFE=5.71913000E8,),
                _F(INST=1.0,
                   REFERENCE='AUTRE_ASTER',
                   POINT=1,
                   RESULTAT=LEDEP,
                   NOM_CHAM='SIEF_ELGA',
                   NOM_CMP='SIXX',
                   VALE_CALC= 2.00000000E+11,
                   VALE_REFE=2.E11,
                   MAILLE='BMA1',),
                _F(INST=1.0,
                   REFERENCE='AUTRE_ASTER',
                   POINT=1,
                   RESULTAT=LEDEP,
                   NOM_CHAM='SIEF_ELGA',
                   NOM_CMP='SIXX',
                   VALE_CALC= 2.94111468E+10,
                   VALE_REFE=2.9411100000E10,
                   MAILLE='MA1',),
                _F(INST=1.0,
                   REFERENCE='AUTRE_ASTER',
                   POINT=1,
                   RESULTAT=LEDEP,
                   NOM_CHAM='SIEF_ELGA',
                   NOM_CMP='SIXX',
                   VALE_CALC= 2.41198680E+10,
                   VALE_REFE=2.4119900000E10,
                   MAILLE='MA3',),
                _F(INST=1.0,
                   REFERENCE='AUTRE_ASTER',
                   POINT=1,
                   RESULTAT=LEDEP,
                   NOM_CHAM='SIEF_ELGA',
                   NOM_CMP='SIYY',
                   VALE_CALC= 2.41198680E+10,
                   VALE_REFE=2.4119900000E10,
                   MAILLE='MA3',),
                _F(INST=1.0,
                   REFERENCE='AUTRE_ASTER',
                   POINT=1,
                   RESULTAT=LEDEP,
                   NOM_CHAM='SIEF_ELGA',
                   NOM_CMP='SIZZ',
                   VALE_CALC=-3.52052819E+09,
                   VALE_REFE=-3.520530000E9,
                   MAILLE='MA3',),
                _F(INST=1.0,
                   REFERENCE='AUTRE_ASTER',
                   POINT=1,
                   RESULTAT=LEDEP,
                   NOM_CHAM='SIEF_ELGA',
                   NOM_CMP='SIXZ',
                   VALE_CALC= 3.95539693E+08,
                   VALE_REFE=3.95540000E8,
                   MAILLE='MA3',),
                ),
          )

TEST_RESU(RESU=(_F(INST=2.0,
                   REFERENCE='AUTRE_ASTER',
                   RESULTAT=LEDEP,
                   NOM_CHAM='DEPL',
                   NOEUD='NO5',
                   NOM_CMP='DZ',
                   VALE_CALC=-1.411777063,
                   VALE_REFE=-1.41178,),
                _F(INST=2.0,
                   REFERENCE='AUTRE_ASTER',
                   RESULTAT=LEDEP,
                   NOM_CHAM='DEPL',
                   NOEUD='NO6',
                   NOM_CMP='DZ',
                   VALE_CALC=-0.962565722,
                   VALE_REFE=-0.96256600000000003,),
                _F(INST=2.0,
                   REFERENCE='AUTRE_ASTER',
                   RESULTAT=LEDEP,
                   NOM_CHAM='FORC_NODA',
                   NOEUD='NO1',
                   NOM_CMP='DX',
                   VALE_CALC=-1.27079682E+10,
                   VALE_REFE=-1.2708000000E10,),
                _F(INST=2.0,
                   REFERENCE='AUTRE_ASTER',
                   RESULTAT=LEDEP,
                   NOM_CHAM='FORC_NODA',
                   NOEUD='NO1',
                   NOM_CMP='DY',
                   VALE_CALC=-1.21360556E+10,
                   VALE_REFE=-1.2136100000E10,),
                _F(INST=2.0,
                   REFERENCE='AUTRE_ASTER',
                   RESULTAT=LEDEP,
                   NOM_CHAM='FORC_NODA',
                   NOEUD='NO1',
                   NOM_CMP='DZ',
                   VALE_CALC= 1.14382518E+09,
                   VALE_REFE=1.143830000E9,),
                _F(INST=2.0,
                   REFERENCE='AUTRE_ASTER',
                   POINT=1,
                   RESULTAT=LEDEP,
                   NOM_CHAM='SIEF_ELGA',
                   NOM_CMP='SIXX',
                   VALE_CALC= 2.20000000E+11,
                   VALE_REFE=2.20000000000E11,
                   MAILLE='BMA1',),
                _F(INST=2.0,
                   REFERENCE='AUTRE_ASTER',
                   POINT=1,
                   RESULTAT=LEDEP,
                   NOM_CHAM='SIEF_ELGA',
                   NOM_CMP='SIXX',
                   VALE_CALC= 5.88222937E+10,
                   VALE_REFE=5.8822300000E10,
                   MAILLE='MA1',),
                _F(INST=2.0,
                   REFERENCE='AUTRE_ASTER',
                   POINT=1,
                   RESULTAT=LEDEP,
                   NOM_CHAM='SIEF_ELGA',
                   NOM_CMP='SIXX',
                   VALE_CALC= 4.82397359E+10,
                   VALE_REFE=4.8239700000E10,
                   MAILLE='MA3',),
                _F(INST=2.0,
                   REFERENCE='AUTRE_ASTER',
                   POINT=1,
                   RESULTAT=LEDEP,
                   NOM_CHAM='SIEF_ELGA',
                   NOM_CMP='SIYY',
                   VALE_CALC= 4.82397359E+10,
                   VALE_REFE=4.8239700000E10,
                   MAILLE='MA3',),
                _F(INST=2.0,
                   REFERENCE='AUTRE_ASTER',
                   POINT=1,
                   RESULTAT=LEDEP,
                   NOM_CHAM='SIEF_ELGA',
                   NOM_CMP='SIZZ',
                   VALE_CALC=-7.04105638E+09,
                   VALE_REFE=-7.041060000E9,
                   MAILLE='MA3',),
                _F(INST=2.0,
                   REFERENCE='AUTRE_ASTER',
                   POINT=1,
                   RESULTAT=LEDEP,
                   NOM_CHAM='SIEF_ELGA',
                   NOM_CMP='SIXZ',
                   VALE_CALC= 7.91079386E+08,
                   VALE_REFE=7.91079000E8,
                   MAILLE='MA3',),
                _F(INST=2.0,
                   REFERENCE='AUTRE_ASTER',
                   POINT=1,
                   RESULTAT=LEDEP,
                   NOM_CHAM='VARI_ELGA',
                   NOM_CMP='V1',
                   VALE_CALC=0.900000000,
                   VALE_REFE=0.90000000000000002,
                   MAILLE='BMA1',),
                ),
          )

TEST_RESU(RESU=(_F(INST=10.0,
                   REFERENCE='AUTRE_ASTER',
                   RESULTAT=LEDEP,
                   NOM_CHAM='DEPL',
                   NOEUD='NO5',
                   NOM_CMP='DZ',
                   VALE_CALC=-6.504744642,
                   VALE_REFE=-6.50474,),
                _F(INST=10.0,
                   REFERENCE='AUTRE_ASTER',
                   RESULTAT=LEDEP,
                   NOM_CHAM='DEPL',
                   NOEUD='NO6',
                   NOM_CMP='DZ',
                   VALE_CALC=-4.863205033,
                   VALE_REFE=-4.8632099999999996,),
                _F(INST=10.0,
                   REFERENCE='AUTRE_ASTER',
                   RESULTAT=LEDEP,
                   NOM_CHAM='FORC_NODA',
                   NOEUD='NO1',
                   NOM_CMP='DX',
                   VALE_CALC=-6.32599720E+10,
                   VALE_REFE=-6.3260000000E10,),
                _F(INST=10.0,
                   REFERENCE='AUTRE_ASTER',
                   RESULTAT=LEDEP,
                   NOM_CHAM='FORC_NODA',
                   NOEUD='NO1',
                   NOM_CMP='DY',
                   VALE_CALC=-6.11700489E+10,
                   VALE_REFE=-6.1170000000E10,),
                _F(INST=10.0,
                   REFERENCE='AUTRE_ASTER',
                   RESULTAT=LEDEP,
                   NOM_CHAM='FORC_NODA',
                   NOEUD='NO1',
                   NOM_CMP='DZ',
                   VALE_CALC= 4.17984623E+09,
                   VALE_REFE=4.179850000E9,),
                _F(INST=10.0,
                   REFERENCE='AUTRE_ASTER',
                   POINT=1,
                   RESULTAT=LEDEP,
                   NOM_CHAM='SIEF_ELGA',
                   NOM_CMP='SIXX',
                   VALE_CALC= 3.80000000E+11,
                   VALE_REFE=3.80000000000E11,
                   MAILLE='BMA1',),
                _F(INST=10.0,
                   REFERENCE='AUTRE_ASTER',
                   POINT=1,
                   RESULTAT=LEDEP,
                   NOM_CHAM='SIEF_ELGA',
                   NOM_CMP='SIXX',
                   VALE_CALC= 2.14952554E+11,
                   VALE_REFE=2.14953000000E11,
                   MAILLE='MA1',),
                _F(INST=10.0,
                   REFERENCE='AUTRE_ASTER',
                   POINT=1,
                   RESULTAT=LEDEP,
                   NOM_CHAM='SIEF_ELGA',
                   NOM_CMP='SIXX',
                   VALE_CALC= 2.43567519E+11,
                   VALE_REFE=2.43568000000E11,
                   MAILLE='MA3',),
                _F(INST=10.0,
                   REFERENCE='AUTRE_ASTER',
                   POINT=1,
                   RESULTAT=LEDEP,
                   NOM_CHAM='SIEF_ELGA',
                   NOM_CMP='SIYY',
                   VALE_CALC= 2.43567519E+11,
                   VALE_REFE=2.43568000000E11,
                   MAILLE='MA3',),
                _F(INST=10.0,
                   REFERENCE='AUTRE_ASTER',
                   POINT=1,
                   RESULTAT=LEDEP,
                   NOM_CHAM='SIEF_ELGA',
                   NOM_CMP='SIZZ',
                   VALE_CALC=-2.57299223E+10,
                   VALE_REFE=-2.5729900000E10,
                   MAILLE='MA3',),
                _F(INST=10.0,
                   REFERENCE='AUTRE_ASTER',
                   POINT=1,
                   RESULTAT=LEDEP,
                   NOM_CHAM='SIEF_ELGA',
                   NOM_CMP='SIXZ',
                   VALE_CALC= 2.89081781E+09,
                   VALE_REFE=2.890820000E9,
                   MAILLE='MA3',),
                _F(INST=10.0,
                   REFERENCE='AUTRE_ASTER',
                   POINT=1,
                   RESULTAT=LEDEP,
                   NOM_CHAM='VARI_ELGA',
                   NOM_CMP='V1',
                   VALE_CALC=8.100000000,
                   VALE_REFE=8.0999999999999996,
                   MAILLE='BMA1',),
                _F(INST=10.0,
                   REFERENCE='AUTRE_ASTER',
                   POINT=1,
                   RESULTAT=LEDEP,
                   NOM_CHAM='VARI_ELGA',
                   NOM_CMP='V1',
                   VALE_CALC=0.672864911,
                   VALE_REFE=0.67286500000000005,
                   MAILLE='MA1',),
                ),
          )

FIN()
#
#
