# MODIF  DATE 14/05/2002   AUTEUR DURAND C.DURAND 
# TITRE PLAQUE ENCASTREE EN TRACTION CONSTITUEE D'UNE NAPPE D'ARMATURES
#            CONFIGURATION MANAGEMENT OF EDF VERSION
# ======================================================================
# COPYRIGHT (C) 1991 - 2001  EDF R&D                  WWW.CODE-ASTER.ORG
#              SEE THE FILE "LICENSE.TERMS" FOR INFORMATION ON USAGE AND
#              REDISTRIBUTION OF THIS FILE.
# ======================================================================

DEBUT(    CODE=_F(  NOM = 'SSNS100A',NIV_PUB_WEB='INTERNET') )

#-----------------------------------------------------------------------
# VALIDATION DU MODELE GRILLE_ISOT_LINE EN PLASTICITE
#-----------------------------------------------------------------------

MAILTOT=LIRE_MAILLAGE(   )

#
# -----------------------------------------------------
# DEFINITION DES MATERIAUX
# -----------------------------------------------------
#

ACIER=DEFI_MATERIAU(
            ELAS=_F(  E = 2.E11,   NU = 0.0, ALPHA = 1.E-5,   ),
            ECRO_LINE=_F( D_SIGM_EPSI = 2.E10,   SY = 2.E08, )
                          )

#
# -------------------------------------------------
# AFFECTATION DES MATERIAUX
# -------------------------------------------------
#
MATAF=AFFE_MATERIAU(    MAILLAGE=MAILTOT,
                          AFFE=_F(  GROUP_MA = 'GEOB',
                                 MATER = ACIER,
                                 TEMP_REF = 50.,
                               )
                      )

#
# -------------------------------------------------
# AFFECTATION DES MODELES
# -------------------------------------------------
#
LEMOD=AFFE_MODELE(    MAILLAGE=MAILTOT,     VERIF='MAILLE',
                        AFFE=_F(  GROUP_MA = 'GEOB',
                               PHENOMENE = 'MECANIQUE',
                               MODELISATION = 'GRILLE',
                             )
                      )

# -------------------------------------------------
# AFFECTATION DES CARACTERISTIQUES
# -------------------------------------------------
#
LACAR=AFFE_CARA_ELEM(    MODELE=LEMOD,
                       GRILLE=_F( GROUP_MA = 'GEOB',
                                SECTION_L = .01,
                                ANGL_REP = (0.0, 0.0,),
                                ANGL_L = 0.,
                                POUR_CENT_L = 1.,
                                POUR_CENT_T = 0.1,
                                EXCENTREMENT = 0.0,
                              )
                        )

# -------------------------------------------------
# CONSTRUCTION DU CHAMP DE TEMPERATURE POUR
# TENTER DE REPRODUIRE LA PRECONTRAINTE
# ------------------------------------------------
#
T0=CREA_CHAMP( OPERATION='AFFE', TYPE_CHAM='NOEU_TEMP_R',
MAILLAGE=MAILTOT,
                          AFFE=_F(
                           TOUT = 'OUI',
                           NOM_CMP = ('TEMP', 'TEMP_INF', 'TEMP_SUP',),
                           VALE = (50., 50., 50.,),
                               )
                      )

T1=CREA_CHAMP( OPERATION='AFFE', TYPE_CHAM='NOEU_TEMP_R',
MAILLAGE=MAILTOT,
                          AFFE=_F(
                           TOUT = 'OUI',
                           NOM_CMP = ('TEMP', 'TEMP_INF', 'TEMP_SUP',),
                           VALE = (-50.,    -50.,       -50.,     ),
                               )
                      )

T2=CREA_CHAMP( OPERATION='AFFE', TYPE_CHAM='NOEU_TEMP_R',
MAILLAGE=MAILTOT,
                          AFFE=_F(
                           TOUT = 'OUI',
                           NOM_CMP = ('TEMP', 'TEMP_INF', 'TEMP_SUP',),
                           VALE = (-250.,   -250.,      -250.,    ),
                               )
                      )

T3=CREA_CHAMP( OPERATION='AFFE', TYPE_CHAM='NOEU_TEMP_R',
MAILLAGE=MAILTOT,
                          AFFE=_F(
                           TOUT = 'OUI',
                           NOM_CMP = ('TEMP', 'TEMP_INF', 'TEMP_SUP',),
                           VALE = (-150.,   -150.,      -150.,    ),
                               )
                      )

T4=CREA_CHAMP( OPERATION='AFFE', TYPE_CHAM='NOEU_TEMP_R',
MAILLAGE=MAILTOT,
                          AFFE=_F(
                           TOUT = 'OUI',
                           NOM_CMP = ('TEMP', 'TEMP_INF', 'TEMP_SUP',),
                           VALE = (-250.,   -250.,      -250.,    ),
                               )
                      )

T5=CREA_CHAMP( OPERATION='AFFE', TYPE_CHAM='NOEU_TEMP_R',
MAILLAGE=MAILTOT,
                          AFFE=_F(
                           TOUT = 'OUI',
                           NOM_CMP = ('TEMP', 'TEMP_INF', 'TEMP_SUP',),
                           VALE = (-50., -50., -50.,),
                               )
                      )

T6=CREA_CHAMP( OPERATION='AFFE', TYPE_CHAM='NOEU_TEMP_R',
MAILLAGE=MAILTOT,
                          AFFE=_F(
                           TOUT = 'OUI',
                           NOM_CMP = ('TEMP', 'TEMP_INF', 'TEMP_SUP',),
                           VALE = (350., 350., 350.,),
                               )
                      )

T7=CREA_CHAMP( OPERATION='AFFE', TYPE_CHAM='NOEU_TEMP_R',
MAILLAGE=MAILTOT,
                          AFFE=_F(
                           TOUT = 'OUI',
                           NOM_CMP = ('TEMP', 'TEMP_INF', 'TEMP_SUP',),
                           VALE = (50., 50., 50.,),
                               )
                      )

T8=CREA_CHAMP( OPERATION='AFFE', TYPE_CHAM='NOEU_TEMP_R',
MAILLAGE=MAILTOT,
                          AFFE=_F(
                           TOUT = 'OUI',
                           NOM_CMP = ('TEMP', 'TEMP_INF', 'TEMP_SUP',),
                           VALE = (-450., -450., -450.,),
                               )
                      )

T9=CREA_CHAMP( OPERATION='AFFE', TYPE_CHAM='NOEU_TEMP_R',
MAILLAGE=MAILTOT,
                          AFFE=_F(
                           TOUT = 'OUI',
                           NOM_CMP = ('TEMP', 'TEMP_INF', 'TEMP_SUP',),
                           VALE = (-110., -110., -110.,),
                               )
                      )

T10=CREA_CHAMP( OPERATION='AFFE', TYPE_CHAM='NOEU_TEMP_R',
MAILLAGE=MAILTOT,
                          AFFE=_F(
                           TOUT = 'OUI',
                           NOM_CMP = ('TEMP', 'TEMP_INF', 'TEMP_SUP',),
                           VALE = (550., 550., 550.,),
                               )
                      )

T11=CREA_CHAMP( OPERATION='AFFE', TYPE_CHAM='NOEU_TEMP_R',
MAILLAGE=MAILTOT,
                          AFFE=_F(
                           TOUT = 'OUI',
                           NOM_CMP = ('TEMP', 'TEMP_INF', 'TEMP_SUP',),
                           VALE = (50., 50., 50.,),
                               )
                      )

LATEMP=CREA_RESU(
             OPERATION='AFFE', TYPE_RESU='EVOL_THER',
              NOM_CHAM='TEMP',AFFE=(
           _F( CHAM_GD = T0,  INST = 0.,),
           _F( CHAM_GD = T1,  INST = 1.,),
           _F( CHAM_GD = T2,  INST = 2.,),
           _F( CHAM_GD = T3,  INST = 3.,),
           _F( CHAM_GD = T4,  INST = 4.,),
           _F( CHAM_GD = T5,  INST = 5.,),
           _F( CHAM_GD = T6,  INST = 6.,),
           _F( CHAM_GD = T7,  INST = 7.,),
           _F( CHAM_GD = T8,  INST = 8.,),
           _F( CHAM_GD = T9,  INST = 9.,),
           _F( CHAM_GD = T10,  INST = 10.,),
           _F( CHAM_GD = T11,  INST = 11.,))
                 )

# ----------------------------------------------
# CHARGEMENT
# ----------------------------------------------
#
ZCHM=AFFE_CHAR_MECA(
             MODELE=LEMOD,
             TEMP_CALCULEE=LATEMP,
            DDL_IMPO=_F(  TOUT = 'OUI',
                       DX = 0.,   DY = 0.,   DZ = 0.,
                       DRX = 0.,   DRY = 0.,   DRZ = 0.,  )
                       )

#
# ----------------------------------------------
# CALCUL
# ----------------------------------------------
#


ZLIST=DEFI_LIST_REEL(   DEBUT=0.,
             INTERVALLE=_F( JUSQU_A = 11.0,  NOMBRE = 11, )
           )

LEDEP=STAT_NON_LINE(
                            MODELE=LEMOD,
                        CHAM_MATER=MATAF,
                         CARA_ELEM=LACAR,
                             EXCIT=_F(
                CHARGE = ZCHM,
                ),
                         COMP_INCR=_F(
                RELATION = 'GRILLE_ISOT_LINE',
                ),
                         INCREMENT=_F(
                LIST_INST = ZLIST,
                NUME_INST_FIN = 11,
                ),
                            NEWTON=_F(
                MATRICE = 'TANGENTE',
                REAC_ITER = 10,
                ),
                       CONVERGENCE=_F(
                RESI_GLOB_MAXI = 1.E-3,
                ITER_INTE_MAXI = 30,
                ITER_GLOB_MAXI = 30,
                ),
                     RECH_LINEAIRE=_F(
                ITER_LINE_MAXI = 10,
                )
              )

LEDEP=CALC_ELEM( reuse = LEDEP,
                 OPTION     = ('SIEF_ELNO_ELGA', 'VARI_ELNO_ELGA',),
                 RESULTAT   = LEDEP,
                 MODELE     = LEMOD,
                 CHAM_MATER = MATAF,
                 CARA_ELEM  = LACAR
               )

#
# -------------------------------------------------
# POST TRAITEMENT DES RESULTATS
# -------------------------------------------------
#

LEDEP=CALC_ELEM(reuse    = LEDEP,
              RESULTAT   = LEDEP,
              MODELE     = LEMOD,
              CHAM_MATER = MATAF,
              CARA_ELEM  = LACAR,
              OPTION     = 'SIGM_ELNO_COQU'
               )

U1=CALC_ELEM( MODELE      = LEMOD,
              CHAM_MATER  = MATAF,
              CARA_ELEM   = LACAR,
              TOUT_ORDRE  = 'OUI',
              OPTION      = ('VARI_ELNO_COQU',),
              NIVE_COUCHE = 'MOY',
              RESULTAT    = LEDEP
            )

IMPR_RESU(RESU=_F(RESULTAT=LEDEP,),);

IMPR_RESU(RESU=_F(RESULTAT=U1,),);


TEST_RESU(RESU=(

            _F( RESULTAT = LEDEP,
             INST = 1.,
             NOM_CHAM = 'SIGM_ELNO_COQU',
             NOM_CMP = 'SIXX',
             MAILLE = 'MA1',
             NOEUD = 'NO1',
             VALE = 2.E8,
             PRECISION = 0.001,
            ),
            _F( RESULTAT = LEDEP,
             INST = 1.,
             NOM_CHAM = 'SIGM_ELNO_COQU',
             NOM_CMP = 'SIYY',
             MAILLE = 'MA1',
             NOEUD = 'NO1',
             VALE = 2.E7,
             PRECISION = 0.001,
            ),
            _F( RESULTAT = LEDEP,
             INST = 2.,
             NOM_CHAM = 'SIGM_ELNO_COQU',
             NOM_CMP = 'SIXX',
             MAILLE = 'MA1',
             NOEUD = 'NO1',
             VALE = 2.4E8,
             PRECISION = 0.001,
            ),
            _F( RESULTAT = LEDEP,
             INST = 2.,
             NOM_CHAM = 'SIGM_ELNO_COQU',
             NOM_CMP = 'SIYY',
             MAILLE = 'MA1',
             NOEUD = 'NO1',
             VALE = 2.4E7,
             PRECISION = 0.001,
            ),
            _F( RESULTAT = LEDEP,
             INST = 3.,
             NOM_CHAM = 'SIGM_ELNO_COQU',
             NOM_CMP = 'SIXX',
             MAILLE = 'MA1',
             NOEUD = 'NO1',
             VALE = 4.E7,
             PRECISION = 0.001,
            ),
            _F( RESULTAT = LEDEP,
             INST = 3.,
             NOM_CHAM = 'SIGM_ELNO_COQU',
             NOM_CMP = 'SIYY',
             MAILLE = 'MA1',
             NOEUD = 'NO1',
             VALE = 4.E6,
             PRECISION = 0.001,
            ),
            _F( RESULTAT = LEDEP,
             INST = 4.,
             NOM_CHAM = 'SIGM_ELNO_COQU',
             NOM_CMP = 'SIXX',
             MAILLE = 'MA1',
             NOEUD = 'NO1',
             VALE = 2.4E8,
             PRECISION = 0.001,
            ),
            _F( RESULTAT = LEDEP,
             INST = 4.,
             NOM_CHAM = 'SIGM_ELNO_COQU',
             NOM_CMP = 'SIYY',
             MAILLE = 'MA1',
             NOEUD = 'NO1',
             VALE = 2.4E7,
             PRECISION = 0.001,
            ),
            _F( RESULTAT = LEDEP,
             INST = 5.,
             NOM_CHAM = 'SIGM_ELNO_COQU',
             NOM_CMP = 'SIXX',
             MAILLE = 'MA1',
             NOEUD = 'NO1',
             VALE = -1.6E8,
             PRECISION = 0.001,
            ),
            _F( RESULTAT = LEDEP,
             INST = 5.,
             NOM_CHAM = 'SIGM_ELNO_COQU',
             NOM_CMP = 'SIYY',
             MAILLE = 'MA1',
             NOEUD = 'NO1',
             VALE = -1.6E7,
             PRECISION = 0.001,
            ),
            _F( RESULTAT = LEDEP,
             INST = 6.,
             NOM_CHAM = 'SIGM_ELNO_COQU',
             NOM_CMP = 'SIXX',
             MAILLE = 'MA1',
             NOEUD = 'NO1',
             VALE = -3.12E8,
             PRECISION = 0.001,
            ),
            _F( RESULTAT = LEDEP,
             INST = 6.,
             NOM_CHAM = 'SIGM_ELNO_COQU',
             NOM_CMP = 'SIYY',
             MAILLE = 'MA1',
             NOEUD = 'NO1',
             VALE = -3.12E7,
             PRECISION = 0.001,
            ),
            _F( RESULTAT = LEDEP,
             INST = 7.,
             NOM_CHAM = 'SIGM_ELNO_COQU',
             NOM_CMP = 'SIXX',
             MAILLE = 'MA1',
             NOEUD = 'NO1',
             VALE = 2.88E8,
             PRECISION = 0.001,
            ),
            _F( RESULTAT = LEDEP,
             INST = 7.,
             NOM_CHAM = 'SIGM_ELNO_COQU',
             NOM_CMP = 'SIYY',
             MAILLE = 'MA1',
             NOEUD = 'NO1',
             VALE = 2.88E7,
             PRECISION = 0.001,
            ),
            _F( RESULTAT = LEDEP,
             INST = 8.,
             NOM_CHAM = 'SIGM_ELNO_COQU',
             NOM_CMP = 'SIXX',
             MAILLE = 'MA1',
             NOEUD = 'NO1',
             VALE = 4.096E8,
             PRECISION = 0.001,
            ),
            _F( RESULTAT = LEDEP,
             INST = 8.,
             NOM_CHAM = 'SIGM_ELNO_COQU',
             NOM_CMP = 'SIYY',
             MAILLE = 'MA1',
             NOEUD = 'NO1',
             VALE = 4.096E7,                  ),
            _F( RESULTAT = LEDEP,
             INST = 9.,
             NOM_CHAM = 'SIGM_ELNO_COQU',
             NOM_CMP = 'SIXX',
             MAILLE = 'MA1',
             NOEUD = 'NO1',
             VALE = -2.704E8,
             PRECISION = 0.001,
            ),
            _F( RESULTAT = LEDEP,
             INST = 9.,
             NOM_CHAM = 'SIGM_ELNO_COQU',
             NOM_CMP = 'SIYY',
             MAILLE = 'MA1',
             NOEUD = 'NO1',
             VALE = -2.704E7,
             PRECISION = 0.001,
            ),
            _F( RESULTAT = LEDEP,
             INST = 10.,
             NOM_CHAM = 'SIGM_ELNO_COQU',
             NOM_CMP = 'SIXX',
             MAILLE = 'MA1',
             NOEUD = 'NO1',
             VALE = -5.2768E8,
             PRECISION = 0.001,
            ),
            _F( RESULTAT = LEDEP,
             INST = 10.,
             NOM_CHAM = 'SIGM_ELNO_COQU',
             NOM_CMP = 'SIYY',
             MAILLE = 'MA1',
             NOEUD = 'NO1',
             VALE = -5.2768E7,
             PRECISION = 0.001,
            ),
            _F( RESULTAT = LEDEP,
             INST = 11.,
             NOM_CHAM = 'SIGM_ELNO_COQU',
             NOM_CMP = 'SIXX',
             MAILLE = 'MA1',
             NOEUD = 'NO1',
             VALE = 4.7232E8,
             PRECISION = 0.001,
            ),
            _F( RESULTAT = LEDEP,
             INST = 11.,
             NOM_CHAM = 'SIGM_ELNO_COQU',
             NOM_CMP = 'SIYY',
             MAILLE = 'MA1',
             NOEUD = 'NO1',
             VALE = 4.7232E7,
             PRECISION = 0.001,
            ))
        )


TEST_RESU(RESU=( 
            _F(  RESULTAT = U1,  NOM_CHAM = 'VARI_ELNO_COQU',  INST = 1.,   TYPE_TEST='MIN',
             CRITERE = 'ABSOLU',    PRECISION = 1.E-4,     NOM_CMP = 'V1',         VALE = 0.00000E+00),
            _F(  RESULTAT = U1,  NOM_CHAM = 'VARI_ELNO_COQU',  INST = 1.,   TYPE_TEST='MAX',
             CRITERE = 'ABSOLU',    PRECISION = 1.E-4,     NOM_CMP = 'V1',         VALE = 0.00000E+00),
            _F(  RESULTAT = U1,  NOM_CHAM = 'VARI_ELNO_COQU',  INST = 1.,   TYPE_TEST='MIN',
             CRITERE = 'ABSOLU',    PRECISION = 1.E-4,     NOM_CMP = 'V2',         VALE = 0.00000E+00),
            _F(  RESULTAT = U1,  NOM_CHAM = 'VARI_ELNO_COQU',  INST = 1.,   TYPE_TEST='MAX',
             CRITERE = 'ABSOLU',    PRECISION = 1.E-4,     NOM_CMP = 'V2',         VALE = 0.00000E+00),
            _F(  RESULTAT = U1,  NOM_CHAM = 'VARI_ELNO_COQU',  INST = 1.,   TYPE_TEST='MIN',
             CRITERE = 'ABSOLU',    PRECISION = 1.E-4,     NOM_CMP = 'V3',         VALE = 0.00000E+00),
            _F(  RESULTAT = U1,  NOM_CHAM = 'VARI_ELNO_COQU',  INST = 1.,   TYPE_TEST='MAX',
             CRITERE = 'ABSOLU',    PRECISION = 1.E-4,     NOM_CMP = 'V3',         VALE = 0.00000E+00),
            _F(  RESULTAT = U1,  NOM_CHAM = 'VARI_ELNO_COQU',  INST = 1.,   TYPE_TEST='MIN',
             CRITERE = 'ABSOLU',    PRECISION = 1.E-4,     NOM_CMP = 'V4',         VALE = 0.00000E+00),
            _F(  RESULTAT = U1,  NOM_CHAM = 'VARI_ELNO_COQU',  INST = 1.,   TYPE_TEST='MAX',
             CRITERE = 'ABSOLU',    PRECISION = 1.E-4,     NOM_CMP = 'V4',         VALE = 0.00000E+00),
             ),)


TEST_RESU(RESU=( 
            _F(  RESULTAT = U1,  NOM_CHAM = 'VARI_ELNO_COQU',  INST = 2.,   TYPE_TEST='MIN',
             CRITERE = 'ABSOLU',    PRECISION = 1.E-4,     NOM_CMP = 'V1',         VALE = 1.80000E-03),
            _F(  RESULTAT = U1,  NOM_CHAM = 'VARI_ELNO_COQU',  INST = 2.,   TYPE_TEST='MAX',
             CRITERE = 'ABSOLU',    PRECISION = 1.E-4,     NOM_CMP = 'V1',         VALE = 1.80000E-03),
            _F(  RESULTAT = U1,  NOM_CHAM = 'VARI_ELNO_COQU',  INST = 2.,   TYPE_TEST='MIN',
             CRITERE = 'ABSOLU',    PRECISION = 1.E-4,     NOM_CMP = 'V2',         VALE = 1.80000E-03),
            _F(  RESULTAT = U1,  NOM_CHAM = 'VARI_ELNO_COQU',  INST = 2.,   TYPE_TEST='MAX',
             CRITERE = 'ABSOLU',    PRECISION = 1.E-4,     NOM_CMP = 'V2',         VALE = 1.80000E-03),
            _F(  RESULTAT = U1,  NOM_CHAM = 'VARI_ELNO_COQU',  INST = 2.,   TYPE_TEST='MIN',
             CRITERE = 'ABSOLU',    PRECISION = 1.E-4,     NOM_CMP = 'V3',         VALE = 1.80000E-03),
            _F(  RESULTAT = U1,  NOM_CHAM = 'VARI_ELNO_COQU',  INST = 2.,   TYPE_TEST='MAX',
             CRITERE = 'ABSOLU',    PRECISION = 1.E-4,     NOM_CMP = 'V3',         VALE = 1.80000E-03),
            _F(  RESULTAT = U1,  NOM_CHAM = 'VARI_ELNO_COQU',  INST = 2.,   TYPE_TEST='MIN',
             CRITERE = 'ABSOLU',    PRECISION = 1.E-4,     NOM_CMP = 'V4',         VALE = 1.80000E-03),
            _F(  RESULTAT = U1,  NOM_CHAM = 'VARI_ELNO_COQU',  INST = 2.,   TYPE_TEST='MAX',
             CRITERE = 'ABSOLU',    PRECISION = 1.E-4,     NOM_CMP = 'V4',         VALE = 1.80000E-03),
             ),)


TEST_RESU(RESU=( 
            _F(  RESULTAT = U1,  NOM_CHAM = 'VARI_ELNO_COQU',  INST = 3.,   TYPE_TEST='MIN',
             CRITERE = 'ABSOLU',    PRECISION = 1.E-4,     NOM_CMP = 'V1',         VALE = 1.80000E-03),
            _F(  RESULTAT = U1,  NOM_CHAM = 'VARI_ELNO_COQU',  INST = 3.,   TYPE_TEST='MAX',
             CRITERE = 'ABSOLU',    PRECISION = 1.E-4,     NOM_CMP = 'V1',         VALE = 1.80000E-03),
            _F(  RESULTAT = U1,  NOM_CHAM = 'VARI_ELNO_COQU',  INST = 3.,   TYPE_TEST='MIN',
             CRITERE = 'ABSOLU',    PRECISION = 1.E-4,     NOM_CMP = 'V2',         VALE = 1.80000E-03),
            _F(  RESULTAT = U1,  NOM_CHAM = 'VARI_ELNO_COQU',  INST = 3.,   TYPE_TEST='MAX',
             CRITERE = 'ABSOLU',    PRECISION = 1.E-4,     NOM_CMP = 'V2',         VALE = 1.80000E-03),
            _F(  RESULTAT = U1,  NOM_CHAM = 'VARI_ELNO_COQU',  INST = 3.,   TYPE_TEST='MIN',
             CRITERE = 'ABSOLU',    PRECISION = 1.E-4,     NOM_CMP = 'V3',         VALE = 1.80000E-03),
            _F(  RESULTAT = U1,  NOM_CHAM = 'VARI_ELNO_COQU',  INST = 3.,   TYPE_TEST='MAX',
             CRITERE = 'ABSOLU',    PRECISION = 1.E-4,     NOM_CMP = 'V3',         VALE = 1.80000E-03),
            _F(  RESULTAT = U1,  NOM_CHAM = 'VARI_ELNO_COQU',  INST = 3.,   TYPE_TEST='MIN',
             CRITERE = 'ABSOLU',    PRECISION = 1.E-4,     NOM_CMP = 'V4',         VALE = 1.80000E-03),
            _F(  RESULTAT = U1,  NOM_CHAM = 'VARI_ELNO_COQU',  INST = 3.,   TYPE_TEST='MAX',
             CRITERE = 'ABSOLU',    PRECISION = 1.E-4,     NOM_CMP = 'V4',         VALE = 1.80000E-03),
             ),)

TEST_RESU(RESU=( 
            _F(  RESULTAT = U1,  NOM_CHAM = 'VARI_ELNO_COQU',  INST = 4.,   TYPE_TEST='MIN',
             CRITERE = 'ABSOLU',    PRECISION = 1.E-4,     NOM_CMP = 'V1',         VALE = 1.80000E-03),
            _F(  RESULTAT = U1,  NOM_CHAM = 'VARI_ELNO_COQU',  INST = 4.,   TYPE_TEST='MAX',
             CRITERE = 'ABSOLU',    PRECISION = 1.E-4,     NOM_CMP = 'V1',         VALE = 1.80000E-03),
            _F(  RESULTAT = U1,  NOM_CHAM = 'VARI_ELNO_COQU',  INST = 4.,   TYPE_TEST='MIN',
             CRITERE = 'ABSOLU',    PRECISION = 1.E-4,     NOM_CMP = 'V2',         VALE = 1.80000E-03),
            _F(  RESULTAT = U1,  NOM_CHAM = 'VARI_ELNO_COQU',  INST = 4.,   TYPE_TEST='MAX',
             CRITERE = 'ABSOLU',    PRECISION = 1.E-4,     NOM_CMP = 'V2',         VALE = 1.80000E-03),
            _F(  RESULTAT = U1,  NOM_CHAM = 'VARI_ELNO_COQU',  INST = 4.,   TYPE_TEST='MIN',
             CRITERE = 'ABSOLU',    PRECISION = 1.E-4,     NOM_CMP = 'V3',         VALE = 1.80000E-03),
            _F(  RESULTAT = U1,  NOM_CHAM = 'VARI_ELNO_COQU',  INST = 4.,   TYPE_TEST='MAX',
             CRITERE = 'ABSOLU',    PRECISION = 1.E-4,     NOM_CMP = 'V3',         VALE = 1.80000E-03),
            _F(  RESULTAT = U1,  NOM_CHAM = 'VARI_ELNO_COQU',  INST = 4.,   TYPE_TEST='MIN',
             CRITERE = 'ABSOLU',    PRECISION = 1.E-4,     NOM_CMP = 'V4',         VALE = 1.80000E-03),
            _F(  RESULTAT = U1,  NOM_CHAM = 'VARI_ELNO_COQU',  INST = 4.,   TYPE_TEST='MAX',
             CRITERE = 'ABSOLU',    PRECISION = 1.E-4,     NOM_CMP = 'V4',         VALE = 1.80000E-03),
             ),)

TEST_RESU(RESU=( 
            _F(  RESULTAT = U1,  NOM_CHAM = 'VARI_ELNO_COQU',  INST = 5.,   TYPE_TEST='MIN',
             CRITERE = 'ABSOLU',    PRECISION = 1.E-4,     NOM_CMP = 'V1',         VALE = 1.80000E-03),
            _F(  RESULTAT = U1,  NOM_CHAM = 'VARI_ELNO_COQU',  INST = 5.,   TYPE_TEST='MAX',
             CRITERE = 'ABSOLU',    PRECISION = 1.E-4,     NOM_CMP = 'V1',         VALE = 1.80000E-03),
            _F(  RESULTAT = U1,  NOM_CHAM = 'VARI_ELNO_COQU',  INST = 5.,   TYPE_TEST='MIN',
             CRITERE = 'ABSOLU',    PRECISION = 1.E-4,     NOM_CMP = 'V2',         VALE = 1.80000E-03),
            _F(  RESULTAT = U1,  NOM_CHAM = 'VARI_ELNO_COQU',  INST = 5.,   TYPE_TEST='MAX',
             CRITERE = 'ABSOLU',    PRECISION = 1.E-4,     NOM_CMP = 'V2',         VALE = 1.80000E-03),
            _F(  RESULTAT = U1,  NOM_CHAM = 'VARI_ELNO_COQU',  INST = 5.,   TYPE_TEST='MIN',
             CRITERE = 'ABSOLU',    PRECISION = 1.E-4,     NOM_CMP = 'V3',         VALE = 1.80000E-03),
            _F(  RESULTAT = U1,  NOM_CHAM = 'VARI_ELNO_COQU',  INST = 5.,   TYPE_TEST='MAX',
             CRITERE = 'ABSOLU',    PRECISION = 1.E-4,     NOM_CMP = 'V3',         VALE = 1.80000E-03),
            _F(  RESULTAT = U1,  NOM_CHAM = 'VARI_ELNO_COQU',  INST = 5.,   TYPE_TEST='MIN',
             CRITERE = 'ABSOLU',    PRECISION = 1.E-4,     NOM_CMP = 'V4',         VALE = 1.80000E-03),
            _F(  RESULTAT = U1,  NOM_CHAM = 'VARI_ELNO_COQU',  INST = 5.,   TYPE_TEST='MAX',
             CRITERE = 'ABSOLU',    PRECISION = 1.E-4,     NOM_CMP = 'V4',         VALE = 1.80000E-03),
             ),)

TEST_RESU(RESU=( 
            _F(  RESULTAT = U1,  NOM_CHAM = 'VARI_ELNO_COQU',  INST = 6.,   TYPE_TEST='MIN',
             CRITERE = 'ABSOLU',    PRECISION = 1.E-4,     NOM_CMP = 'V1',         VALE = -1.44000E-03),
            _F(  RESULTAT = U1,  NOM_CHAM = 'VARI_ELNO_COQU',  INST = 6.,   TYPE_TEST='MAX',
             CRITERE = 'ABSOLU',    PRECISION = 1.E-4,     NOM_CMP = 'V1',         VALE = -1.44000E-03),
            _F(  RESULTAT = U1,  NOM_CHAM = 'VARI_ELNO_COQU',  INST = 6.,   TYPE_TEST='MIN',
             CRITERE = 'ABSOLU',    PRECISION = 1.E-4,     NOM_CMP = 'V2',         VALE = 5.04000E-03),
            _F(  RESULTAT = U1,  NOM_CHAM = 'VARI_ELNO_COQU',  INST = 6.,   TYPE_TEST='MAX',
             CRITERE = 'ABSOLU',    PRECISION = 1.E-4,     NOM_CMP = 'V2',         VALE = 5.04000E-03),
            _F(  RESULTAT = U1,  NOM_CHAM = 'VARI_ELNO_COQU',  INST = 6.,   TYPE_TEST='MIN',
             CRITERE = 'ABSOLU',    PRECISION = 1.E-4,     NOM_CMP = 'V3',         VALE = -1.44000E-03),
            _F(  RESULTAT = U1,  NOM_CHAM = 'VARI_ELNO_COQU',  INST = 6.,   TYPE_TEST='MAX',
             CRITERE = 'ABSOLU',    PRECISION = 1.E-4,     NOM_CMP = 'V3',         VALE = -1.44000E-03),
            _F(  RESULTAT = U1,  NOM_CHAM = 'VARI_ELNO_COQU',  INST = 6.,   TYPE_TEST='MIN',
             CRITERE = 'ABSOLU',    PRECISION = 1.E-4,     NOM_CMP = 'V4',         VALE = 5.04000E-03),
            _F(  RESULTAT = U1,  NOM_CHAM = 'VARI_ELNO_COQU',  INST = 6.,   TYPE_TEST='MAX',
             CRITERE = 'ABSOLU',    PRECISION = 1.E-4,     NOM_CMP = 'V4',         VALE = 5.04000E-03),
             ),)

TEST_RESU(RESU=( 
            _F(  RESULTAT = U1,  NOM_CHAM = 'VARI_ELNO_COQU',  INST = 7.,   TYPE_TEST='MIN',
             CRITERE = 'ABSOLU',    PRECISION = 1.E-4,     NOM_CMP = 'V1',         VALE = -1.44000E-03),
            _F(  RESULTAT = U1,  NOM_CHAM = 'VARI_ELNO_COQU',  INST = 7.,   TYPE_TEST='MAX',
             CRITERE = 'ABSOLU',    PRECISION = 1.E-4,     NOM_CMP = 'V1',         VALE = -1.44000E-03),
            _F(  RESULTAT = U1,  NOM_CHAM = 'VARI_ELNO_COQU',  INST = 7.,   TYPE_TEST='MIN',
             CRITERE = 'ABSOLU',    PRECISION = 1.E-4,     NOM_CMP = 'V2',         VALE = 5.04000E-03),
            _F(  RESULTAT = U1,  NOM_CHAM = 'VARI_ELNO_COQU',  INST = 7.,   TYPE_TEST='MAX',
             CRITERE = 'ABSOLU',    PRECISION = 1.E-4,     NOM_CMP = 'V2',         VALE = 5.04000E-03),
            _F(  RESULTAT = U1,  NOM_CHAM = 'VARI_ELNO_COQU',  INST = 7.,   TYPE_TEST='MIN',
             CRITERE = 'ABSOLU',    PRECISION = 1.E-4,     NOM_CMP = 'V3',         VALE = -1.44000E-03),
            _F(  RESULTAT = U1,  NOM_CHAM = 'VARI_ELNO_COQU',  INST = 7.,   TYPE_TEST='MAX',
             CRITERE = 'ABSOLU',    PRECISION = 1.E-4,     NOM_CMP = 'V3',         VALE = -1.44000E-03),
            _F(  RESULTAT = U1,  NOM_CHAM = 'VARI_ELNO_COQU',  INST = 7.,   TYPE_TEST='MIN',
             CRITERE = 'ABSOLU',    PRECISION = 1.E-4,     NOM_CMP = 'V4',         VALE = 5.04000E-03),
            _F(  RESULTAT = U1,  NOM_CHAM = 'VARI_ELNO_COQU',  INST = 7.,   TYPE_TEST='MAX',
             CRITERE = 'ABSOLU',    PRECISION = 1.E-4,     NOM_CMP = 'V4',         VALE = 5.04000E-03),
             ),)

TEST_RESU(RESU=( 
            _F(  RESULTAT = U1,  NOM_CHAM = 'VARI_ELNO_COQU',  INST = 8.,   TYPE_TEST='MIN',
             CRITERE = 'ABSOLU',    PRECISION = 1.E-4,     NOM_CMP = 'V1',         VALE = 2.95200E-03),
            _F(  RESULTAT = U1,  NOM_CHAM = 'VARI_ELNO_COQU',  INST = 8.,   TYPE_TEST='MAX',
             CRITERE = 'ABSOLU',    PRECISION = 1.E-4,     NOM_CMP = 'V1',         VALE = 2.95200E-03),
            _F(  RESULTAT = U1,  NOM_CHAM = 'VARI_ELNO_COQU',  INST = 8.,   TYPE_TEST='MIN',
             CRITERE = 'ABSOLU',    PRECISION = 1.E-4,     NOM_CMP = 'V2',         VALE = 9.43200E-03),
            _F(  RESULTAT = U1,  NOM_CHAM = 'VARI_ELNO_COQU',  INST = 8.,   TYPE_TEST='MAX',
             CRITERE = 'ABSOLU',    PRECISION = 1.E-4,     NOM_CMP = 'V2',         VALE = 9.43200E-03),
            _F(  RESULTAT = U1,  NOM_CHAM = 'VARI_ELNO_COQU',  INST = 8.,   TYPE_TEST='MIN',
             CRITERE = 'ABSOLU',    PRECISION = 1.E-4,     NOM_CMP = 'V3',         VALE = 2.95200E-03),
            _F(  RESULTAT = U1,  NOM_CHAM = 'VARI_ELNO_COQU',  INST = 8.,   TYPE_TEST='MAX',
             CRITERE = 'ABSOLU',    PRECISION = 1.E-4,     NOM_CMP = 'V3',         VALE = 2.95200E-03),
            _F(  RESULTAT = U1,  NOM_CHAM = 'VARI_ELNO_COQU',  INST = 8.,   TYPE_TEST='MIN',
             CRITERE = 'ABSOLU',    PRECISION = 1.E-4,     NOM_CMP = 'V4',         VALE = 9.43200E-03),
            _F(  RESULTAT = U1,  NOM_CHAM = 'VARI_ELNO_COQU',  INST = 8.,   TYPE_TEST='MAX',
             CRITERE = 'ABSOLU',    PRECISION = 1.E-4,     NOM_CMP = 'V4',         VALE = 9.43200E-03),
             ),)

TEST_RESU(RESU=( 
            _F(  RESULTAT = U1,  NOM_CHAM = 'VARI_ELNO_COQU',  INST = 9.,   TYPE_TEST='MIN',
             CRITERE = 'ABSOLU',    PRECISION = 1.E-4,     NOM_CMP = 'V1',         VALE = 2.95200E-03),
            _F(  RESULTAT = U1,  NOM_CHAM = 'VARI_ELNO_COQU',  INST = 9.,   TYPE_TEST='MAX',
             CRITERE = 'ABSOLU',    PRECISION = 1.E-4,     NOM_CMP = 'V1',         VALE = 2.95200E-03),
            _F(  RESULTAT = U1,  NOM_CHAM = 'VARI_ELNO_COQU',  INST = 9.,   TYPE_TEST='MIN',
             CRITERE = 'ABSOLU',    PRECISION = 1.E-4,     NOM_CMP = 'V2',         VALE = 9.43200E-03),
            _F(  RESULTAT = U1,  NOM_CHAM = 'VARI_ELNO_COQU',  INST = 9.,   TYPE_TEST='MAX',
             CRITERE = 'ABSOLU',    PRECISION = 1.E-4,     NOM_CMP = 'V2',         VALE = 9.43200E-03),
            _F(  RESULTAT = U1,  NOM_CHAM = 'VARI_ELNO_COQU',  INST = 9.,   TYPE_TEST='MIN',
             CRITERE = 'ABSOLU',    PRECISION = 1.E-4,     NOM_CMP = 'V3',         VALE = 2.95200E-03),
            _F(  RESULTAT = U1,  NOM_CHAM = 'VARI_ELNO_COQU',  INST = 9.,   TYPE_TEST='MAX',
             CRITERE = 'ABSOLU',    PRECISION = 1.E-4,     NOM_CMP = 'V3',         VALE = 2.95200E-03),
            _F(  RESULTAT = U1,  NOM_CHAM = 'VARI_ELNO_COQU',  INST = 9.,   TYPE_TEST='MIN',
             CRITERE = 'ABSOLU',    PRECISION = 1.E-4,     NOM_CMP = 'V4',         VALE = 9.43200E-03),
            _F(  RESULTAT = U1,  NOM_CHAM = 'VARI_ELNO_COQU',  INST = 9.,   TYPE_TEST='MAX',
             CRITERE = 'ABSOLU',    PRECISION = 1.E-4,     NOM_CMP = 'V4',         VALE = 9.43200E-03),
             ),)

TEST_RESU(RESU=( 
            _F(  RESULTAT = U1,  NOM_CHAM = 'VARI_ELNO_COQU',  INST = 10.,   TYPE_TEST='MIN',
             CRITERE = 'ABSOLU',    PRECISION = 1.E-4,     NOM_CMP = 'V1',         VALE = -2.36160E-03),
            _F(  RESULTAT = U1,  NOM_CHAM = 'VARI_ELNO_COQU',  INST = 10.,   TYPE_TEST='MAX',
             CRITERE = 'ABSOLU',    PRECISION = 1.E-4,     NOM_CMP = 'V1',         VALE = -2.36160E-03),
            _F(  RESULTAT = U1,  NOM_CHAM = 'VARI_ELNO_COQU',  INST = 10.,   TYPE_TEST='MIN',
             CRITERE = 'ABSOLU',    PRECISION = 1.E-4,     NOM_CMP = 'V2',         VALE = 1.47456E-02),
            _F(  RESULTAT = U1,  NOM_CHAM = 'VARI_ELNO_COQU',  INST = 10.,   TYPE_TEST='MAX',
             CRITERE = 'ABSOLU',    PRECISION = 1.E-4,     NOM_CMP = 'V2',         VALE = 1.47456E-02),
            _F(  RESULTAT = U1,  NOM_CHAM = 'VARI_ELNO_COQU',  INST = 10.,   TYPE_TEST='MIN',
             CRITERE = 'ABSOLU',    PRECISION = 1.E-4,     NOM_CMP = 'V3',         VALE = -2.36160E-03),
            _F(  RESULTAT = U1,  NOM_CHAM = 'VARI_ELNO_COQU',  INST = 10.,   TYPE_TEST='MAX',
             CRITERE = 'ABSOLU',    PRECISION = 1.E-4,     NOM_CMP = 'V3',         VALE = -2.36160E-03),
            _F(  RESULTAT = U1,  NOM_CHAM = 'VARI_ELNO_COQU',  INST = 10.,   TYPE_TEST='MIN',
             CRITERE = 'ABSOLU',    PRECISION = 1.E-4,     NOM_CMP = 'V4',         VALE = 1.47456E-02),
            _F(  RESULTAT = U1,  NOM_CHAM = 'VARI_ELNO_COQU',  INST = 10.,   TYPE_TEST='MAX',
             CRITERE = 'ABSOLU',    PRECISION = 1.E-4,     NOM_CMP = 'V4',         VALE = 1.47456E-02),
             ),)

TEST_RESU(RESU=( 
            _F(  RESULTAT = U1,  NOM_CHAM = 'VARI_ELNO_COQU',  INST = 11.,   TYPE_TEST='MIN',
             CRITERE = 'ABSOLU',    PRECISION = 1.E-4,     NOM_CMP = 'V1',         VALE = -2.36160E-03),
            _F(  RESULTAT = U1,  NOM_CHAM = 'VARI_ELNO_COQU',  INST = 11.,   TYPE_TEST='MAX',
             CRITERE = 'ABSOLU',    PRECISION = 1.E-4,     NOM_CMP = 'V1',         VALE = -2.36160E-03),
            _F(  RESULTAT = U1,  NOM_CHAM = 'VARI_ELNO_COQU',  INST = 11.,   TYPE_TEST='MIN',
             CRITERE = 'ABSOLU',    PRECISION = 1.E-4,     NOM_CMP = 'V2',         VALE = 1.47456E-02),
            _F(  RESULTAT = U1,  NOM_CHAM = 'VARI_ELNO_COQU',  INST = 11.,   TYPE_TEST='MAX',
             CRITERE = 'ABSOLU',    PRECISION = 1.E-4,     NOM_CMP = 'V2',         VALE = 1.47456E-02),
            _F(  RESULTAT = U1,  NOM_CHAM = 'VARI_ELNO_COQU',  INST = 11.,   TYPE_TEST='MIN',
             CRITERE = 'ABSOLU',    PRECISION = 1.E-4,     NOM_CMP = 'V3',         VALE = -2.36160E-03),
            _F(  RESULTAT = U1,  NOM_CHAM = 'VARI_ELNO_COQU',  INST = 11.,   TYPE_TEST='MAX',
             CRITERE = 'ABSOLU',    PRECISION = 1.E-4,     NOM_CMP = 'V3',         VALE = -2.36160E-03),
            _F(  RESULTAT = U1,  NOM_CHAM = 'VARI_ELNO_COQU',  INST = 11.,   TYPE_TEST='MIN',
             CRITERE = 'ABSOLU',    PRECISION = 1.E-4,     NOM_CMP = 'V4',         VALE = 1.47456E-02),
            _F(  RESULTAT = U1,  NOM_CHAM = 'VARI_ELNO_COQU',  INST = 11.,   TYPE_TEST='MAX',
             CRITERE = 'ABSOLU',    PRECISION = 1.E-4,     NOM_CMP = 'V4',         VALE = 1.47456E-02),
             ),)

FIN()
#
#
