# MODIF  DATE 20/07/2009   AUTEUR GENIAUT S.GENIAUT 
# TITRE POUTRE CONSOLE SOUMISE A UN EFFORT TRANCHANT
# ssns109b.para = tps_job 300 mem_job 128Mo ncpus 1 liste_test S
#            CONFIGURATION MANAGEMENT OF EDF VERSION
# ======================================================================
# COPYRIGHT (C) 1991 - 2009  EDF R&D                  WWW.CODE-ASTER.ORG
# THIS PROGRAM IS FREE SOFTWARE; YOU CAN REDISTRIBUTE IT AND/OR MODIFY  
# IT UNDER THE TERMS OF THE GNU GENERAL PUBLIC LICENSE AS PUBLISHED BY  
# THE FREE SOFTWARE FOUNDATION; EITHER VERSION 2 OF THE LICENSE, OR     
# (AT YOUR OPTION) ANY LATER VERSION.                                                    
#                                                                       
# THIS PROGRAM IS DISTRIBUTED IN THE HOPE THAT IT WILL BE USEFUL, BUT   
# WITHOUT ANY WARRANTY; WITHOUT EVEN THE IMPLIED WARRANTY OF            
# MERCHANTABILITY OR FITNESS FOR A PARTICULAR PURPOSE. SEE THE GNU      
# GENERAL PUBLIC LICENSE FOR MORE DETAILS.                              
#                                                                       
# YOU SHOULD HAVE RECEIVED A COPY OF THE GNU GENERAL PUBLIC LICENSE     
# ALONG WITH THIS PROGRAM; IF NOT, WRITE TO EDF R&D CODE_ASTER,         
#    1 AVENUE DU GENERAL DE GAULLE, 92141 CLAMART CEDEX, FRANCE.        
# ======================================================================
# ELEMENT SHB6 - V.D TRINH 2009

#
DEBUT(CODE=_F(NOM='SSNS109B',
              NIV_PUB_WEB='INTERNET',
              VISU_EFICAS='OUI',),);

PRE_GIBI();

MAIL=LIRE_MAILLAGE();

MAIL=MODI_MAILLAGE(reuse =MAIL,
                   MAILLAGE=MAIL,
                   ORIE_SHB=_F(GROUP_MA='VOL2',),);

MODMECA=AFFE_MODELE(MAILLAGE=MAIL,
                    AFFE=_F(TOUT='OUI',
                            PHENOMENE='MECANIQUE',
                            MODELISATION='SHB8',),);

MAT=DEFI_MATERIAU(ELAS=_F(E=1.2E+6,
                          NU=0.,),);

CHM=AFFE_MATERIAU(MAILLAGE=MAIL,
                  AFFE=_F(TOUT='OUI',
                          MATER=MAT,),);

CHARGT=AFFE_CHAR_MECA(MODELE=MODMECA,
                      DDL_IMPO=_F(GROUP_MA='SS3',
                                  DX=0.0,
                                  DY=0.0,
                                  DZ=0.0,),
                      FORCE_NODALE=_F(GROUP_NO=('P2','P3','P6','P7',),
                                      FZ=1.,),);

LISTPILO=DEFI_LIST_REEL(DEBUT=0.0,
                        INTERVALLE=_F(JUSQU_A=6.7,
                                      NOMBRE=67,),);

NONLIN=STAT_NON_LINE(MODELE=MODMECA,
                     CHAM_MATER=CHM,
                     EXCIT=_F(CHARGE=CHARGT,
                              TYPE_CHARGE='FIXE_PILO',),
                     COMP_INCR=_F(RELATION='ELAS',
                                  DEFORMATION='GREEN',
                                  TOUT='OUI',),
                    INCREMENT=_F(LIST_INST=LISTPILO,),
                     NEWTON=_F(MATRICE='TANGENTE',),
                     PILOTAGE=_F(TYPE='DDL_IMPO',
                                 COEF_MULT=1.0,
                                 GROUP_NO='P2',
                                 NOM_CMP='DZ',),
                     CONVERGENCE=_F(RESI_GLOB_RELA=0.0000001,
                                    ITER_GLOB_MAXI=50,),);

TABDZ=POST_RELEVE_T(ACTION=_F(INTITULE='F',
                              GROUP_NO='P2',
                              RESULTAT=NONLIN,
                              NOM_CHAM='DEPL',
                              TOUT_ORDRE='OUI',
                              NOM_CMP='DZ',
                              OPERATION='EXTRACTION',),);

FDZ=RECU_FONCTION(TABLE=TABDZ,
                  PARA_X='INST',
                  PARA_Y='DZ',);

FETA=RECU_FONCTION(RESULTAT=NONLIN,
                   NOM_PARA_RESU='ETA_PILOTAGE',
                   INTERPOL='LIN',
                   PROL_GAUCHE='CONSTANT',);

IMPR_FONCTION(UNITE=8,
            FORMAT='TABLEAU',
            COURBE=(_F(FONCTION=FDZ,),
                    _F(FONCTION=FETA,),),);

# solution de reference de SZE K.Y et al.

REFEZ=DEFI_FONCTION(NOM_PARA='INST',VALE=(0.,0.,
                          0.663,0.05,
                          1.309,0.1,
                          1.922,0.15,
                          2.493,0.2,
                          3.015,0.25,
                          3.488,0.3,
                          3.912,0.35,
                          4.292,0.4,
                          4.631,0.45,
                          4.933,0.5,
                          5.202,0.55,
                          5.444,0.6,
                          5.660,0.65,
                          5.885,0.7,
                          6.031,0.75,
                          6.190,0.8,
                          6.335,0.85,
                          6.467,0.9,
                          6.588,0.95,
                          6.698,1.,
                          ),INTERPOL='LIN',PROL_DROITE='CONSTANT',PROL_GAUCHE='CONSTANT',);


IMPR_FONCTION(UNITE=8,
            FORMAT='TABLEAU',
            COURBE=(_F(FONCTION=REFEZ,),
                    _F(FONCTION=FETA,),),);

DIFFZ=CALC_FONCTION(COMB=(
                          _F(  FONCTION = FETA, COEF =  1.),
                          _F(  FONCTION = REFEZ, COEF = -1.),
                          ) )

IMPR_FONCTION(UNITE=8,
            FORMAT='TABLEAU',
            COURBE=(_F(FONCTION=DIFFZ,),),);
   
MAXREFEZ=INFO_FONCTION( MAX=_F(  FONCTION = REFEZ)    )

IMPR_TABLE(TABLE=MAXREFEZ)


# COMPARAISON A LA SOLUTION DE REFERENCE

TEST_FONCTION(VALEUR=(
_F(FONCTION=DIFFZ,REFERENCE='SOURCE_EXTERNE', VALE_PARA = 0.663,VALE_REFE=0.,PRECISION=1.,CRITERE='ABSOLU',),
_F(FONCTION=DIFFZ,REFERENCE='SOURCE_EXTERNE', VALE_PARA = 1.309,VALE_REFE=0.,PRECISION=1.,CRITERE='ABSOLU',),
_F(FONCTION=DIFFZ,REFERENCE='SOURCE_EXTERNE', VALE_PARA = 1.922,VALE_REFE=0.,PRECISION=1.,CRITERE='ABSOLU',),
_F(FONCTION=DIFFZ,REFERENCE='SOURCE_EXTERNE', VALE_PARA = 2.493,VALE_REFE=0.,PRECISION=1.,CRITERE='ABSOLU',),
_F(FONCTION=DIFFZ,REFERENCE='SOURCE_EXTERNE', VALE_PARA = 3.015,VALE_REFE=0.,PRECISION=1.,CRITERE='ABSOLU',),
_F(FONCTION=DIFFZ,REFERENCE='SOURCE_EXTERNE', VALE_PARA = 3.488,VALE_REFE=0.,PRECISION=1.,CRITERE='ABSOLU',),
_F(FONCTION=DIFFZ,REFERENCE='SOURCE_EXTERNE', VALE_PARA = 3.912,VALE_REFE=0.,PRECISION=1.,CRITERE='ABSOLU',),
_F(FONCTION=DIFFZ,REFERENCE='SOURCE_EXTERNE', VALE_PARA = 4.292,VALE_REFE=0.,PRECISION=1.,CRITERE='ABSOLU',),
_F(FONCTION=DIFFZ,REFERENCE='SOURCE_EXTERNE', VALE_PARA = 4.631,VALE_REFE=0.,PRECISION=1.,CRITERE='ABSOLU',),
_F(FONCTION=DIFFZ,REFERENCE='SOURCE_EXTERNE', VALE_PARA = 4.933,VALE_REFE=0.,PRECISION=1.,CRITERE='ABSOLU',),
_F(FONCTION=DIFFZ,REFERENCE='SOURCE_EXTERNE', VALE_PARA = 5.202,VALE_REFE=0.,PRECISION=1.,CRITERE='ABSOLU',),
_F(FONCTION=DIFFZ,REFERENCE='SOURCE_EXTERNE', VALE_PARA = 5.444,VALE_REFE=0.,PRECISION=1.,CRITERE='ABSOLU',),
_F(FONCTION=DIFFZ,REFERENCE='SOURCE_EXTERNE', VALE_PARA = 5.660,VALE_REFE=0.,PRECISION=1.,CRITERE='ABSOLU',),
_F(FONCTION=DIFFZ,REFERENCE='SOURCE_EXTERNE', VALE_PARA = 5.885,VALE_REFE=0.,PRECISION=1.,CRITERE='ABSOLU',),
_F(FONCTION=DIFFZ,REFERENCE='SOURCE_EXTERNE', VALE_PARA = 6.031,VALE_REFE=0.,PRECISION=1.,CRITERE='ABSOLU',),
_F(FONCTION=DIFFZ,REFERENCE='SOURCE_EXTERNE', VALE_PARA = 6.190,VALE_REFE=0.,PRECISION=1.,CRITERE='ABSOLU',),
_F(FONCTION=DIFFZ,REFERENCE='SOURCE_EXTERNE', VALE_PARA = 6.335,VALE_REFE=0.,PRECISION=1.,CRITERE='ABSOLU',),
_F(FONCTION=DIFFZ,REFERENCE='SOURCE_EXTERNE', VALE_PARA = 6.467,VALE_REFE=0.,PRECISION=1.,CRITERE='ABSOLU',),
_F(FONCTION=DIFFZ,REFERENCE='SOURCE_EXTERNE', VALE_PARA = 6.588,VALE_REFE=0.,PRECISION=1.,CRITERE='ABSOLU',),
_F(FONCTION=DIFFZ,REFERENCE='SOURCE_EXTERNE', VALE_PARA = 6.698,VALE_REFE=0.,PRECISION=1.,CRITERE='ABSOLU',),
            ),)
 
# RECHERCHE DE LA VALEUR MAXIMUM DE LA VALEUR ABSOLUE DE LA FONCTION DE REFERENCE

ABSREFEZ = CALC_FONCTION( ABS=_F(  FONCTION = REFEZ)    )
MXREFEZ  = INFO_FONCTION( MAX=_F(  FONCTION = ABSREFEZ)    )
IMPR_TABLE(TABLE=MXREFEZ)

# RECHERCHE DE LA VALEUR MAXIMUM DE LA VALEUR ABSOLUE DE LA DIFFERENCE 
# ENTRE LA FONCTION REFEX ET LA FONCTION FETA (RESULTATS ASTER)

ABSDIFFZ  = CALC_FONCTION( ABS=_F(  FONCTION = DIFFZ)    )
MXDIFFZ   = INFO_FONCTION( MAX=_F(  FONCTION = ABSDIFFZ)    )
IMPR_TABLE(TABLE=MXDIFFZ)

TEST_TABLE(TABLE=MXREFEZ,
           FILTRE=(_F(NOM_PARA='FONCTION',VALE_K='ABSREFEZ'),
                   _F(NOM_PARA='TYPE',    VALE_K='MAXI',),),
           NOM_PARA='TOUTRESU',
           VALE=1.,
           PRECISION=0.001,
           REFERENCE='ANALYTIQUE',);

TEST_TABLE(TABLE=MXDIFFZ,
           FILTRE=(_F(NOM_PARA='FONCTION',VALE_K='ABSDIFFZ'),
                   _F(NOM_PARA='TYPE',    VALE_K='MAXI',),),
           NOM_PARA='ETA_PILO',
           VALE=2.51E-2,
           PRECISION=0.001,
           REFERENCE='ANALYTIQUE',);

TABDX=POST_RELEVE_T(ACTION=_F(INTITULE='F',
                              GROUP_NO='P2',
                              RESULTAT=NONLIN,
                              NOM_CHAM='DEPL',
                              TOUT_ORDRE='OUI',
                              NOM_CMP='DX',
                              OPERATION='EXTRACTION',),);

FDX1=RECU_FONCTION(TABLE=TABDX,
                  PARA_X='INST',
                  PARA_Y='DX',);

FDX=CALC_FONCTION(COMB=_F(FONCTION=FDX1,
                          COEF=-1.,),);
 
IMPR_FONCTION(UNITE=8,
            FORMAT='TABLEAU',
            COURBE=(_F(FONCTION=FDX,),
                    _F(FONCTION=FETA,),),);

# solution de reference de SZE K.Y et al.

REFEX=DEFI_FONCTION(NOM_PARA='INST',VALE=(0.,0.,
                          0.026,0.05,
                          0.103,0.1,
                          0.224,0.15,
                          0.381,0.2,
                          0.563,0.25,
                          0.763,0.3,
                          0.971,0.35,
                          1.184,0.4,
                          1.396,0.45,
                          1.604,0.5,
                          1.807,0.55,
                          2.002,0.6,
                          2.190,0.65,
                          2.370,0.7,
                          2.541,0.75,
                          2.705,0.8,
                          2.861,0.85,
                          3.010,0.9,
                          3.151,0.95,
                          3.286,1.,
                          ),INTERPOL='LIN',PROL_DROITE='CONSTANT',PROL_GAUCHE='CONSTANT',);

DIFFX=CALC_FONCTION(COMB=(
                          _F(  FONCTION = FETA, COEF =  1.), 
                          _F(  FONCTION = REFEX, COEF = -1.), 
                          ) )

IMPR_FONCTION(UNITE=8,
            FORMAT='TABLEAU',
            COURBE=(_F(FONCTION=DIFFX,),),);
 
MAXREFEX=INFO_FONCTION( MAX=_F(  FONCTION = REFEX)    )

IMPR_TABLE(TABLE=MAXREFEX)


# COMPARAISON A LA SOLUTION DE REFERENCE

TEST_FONCTION(VALEUR=(
_F(FONCTION=DIFFX,REFERENCE='SOURCE_EXTERNE', VALE_PARA = 0.026,VALE_REFE=0.,PRECISION=1.,CRITERE='ABSOLU',),
_F(FONCTION=DIFFX,REFERENCE='SOURCE_EXTERNE', VALE_PARA = 0.103,VALE_REFE=0.,PRECISION=1.,CRITERE='ABSOLU',),
_F(FONCTION=DIFFX,REFERENCE='SOURCE_EXTERNE', VALE_PARA = 0.224,VALE_REFE=0.,PRECISION=1.,CRITERE='ABSOLU',),
_F(FONCTION=DIFFX,REFERENCE='SOURCE_EXTERNE', VALE_PARA = 0.381,VALE_REFE=0.,PRECISION=1.,CRITERE='ABSOLU',),
_F(FONCTION=DIFFX,REFERENCE='SOURCE_EXTERNE', VALE_PARA = 0.563,VALE_REFE=0.,PRECISION=1.,CRITERE='ABSOLU',),
_F(FONCTION=DIFFX,REFERENCE='SOURCE_EXTERNE', VALE_PARA = 0.763,VALE_REFE=0.,PRECISION=1.,CRITERE='ABSOLU',),
_F(FONCTION=DIFFX,REFERENCE='SOURCE_EXTERNE', VALE_PARA = 0.971,VALE_REFE=0.,PRECISION=1.,CRITERE='ABSOLU',),
_F(FONCTION=DIFFX,REFERENCE='SOURCE_EXTERNE', VALE_PARA = 1.184,VALE_REFE=0.,PRECISION=1.,CRITERE='ABSOLU',),
_F(FONCTION=DIFFX,REFERENCE='SOURCE_EXTERNE', VALE_PARA = 1.396,VALE_REFE=0.,PRECISION=1.,CRITERE='ABSOLU',),
_F(FONCTION=DIFFX,REFERENCE='SOURCE_EXTERNE', VALE_PARA = 1.604,VALE_REFE=0.,PRECISION=1.,CRITERE='ABSOLU',),
_F(FONCTION=DIFFX,REFERENCE='SOURCE_EXTERNE', VALE_PARA = 1.807,VALE_REFE=0.,PRECISION=1.,CRITERE='ABSOLU',),
_F(FONCTION=DIFFX,REFERENCE='SOURCE_EXTERNE', VALE_PARA = 2.002,VALE_REFE=0.,PRECISION=1.,CRITERE='ABSOLU',),
_F(FONCTION=DIFFX,REFERENCE='SOURCE_EXTERNE', VALE_PARA = 2.190,VALE_REFE=0.,PRECISION=1.,CRITERE='ABSOLU',),
_F(FONCTION=DIFFX,REFERENCE='SOURCE_EXTERNE', VALE_PARA = 2.370,VALE_REFE=0.,PRECISION=1.,CRITERE='ABSOLU',),
_F(FONCTION=DIFFX,REFERENCE='SOURCE_EXTERNE', VALE_PARA = 2.541,VALE_REFE=0.,PRECISION=1.,CRITERE='ABSOLU',),
_F(FONCTION=DIFFX,REFERENCE='SOURCE_EXTERNE', VALE_PARA = 2.705,VALE_REFE=0.,PRECISION=1.,CRITERE='ABSOLU',),
_F(FONCTION=DIFFX,REFERENCE='SOURCE_EXTERNE', VALE_PARA = 2.861,VALE_REFE=0.,PRECISION=1.,CRITERE='ABSOLU',),
_F(FONCTION=DIFFX,REFERENCE='SOURCE_EXTERNE', VALE_PARA = 3.010,VALE_REFE=0.,PRECISION=1.,CRITERE='ABSOLU',),
_F(FONCTION=DIFFX,REFERENCE='SOURCE_EXTERNE', VALE_PARA = 3.151,VALE_REFE=0.,PRECISION=1.,CRITERE='ABSOLU',),
_F(FONCTION=DIFFX,REFERENCE='SOURCE_EXTERNE', VALE_PARA = 3.286,VALE_REFE=0.,PRECISION=1.,CRITERE='ABSOLU',),
            ),)

# RECHERCHE DE LA VALEUR MAXIMUM DE LA VALEUR ABSOLUE DE LA FONCTION DE REFERENCE

ABSREFEX = CALC_FONCTION( ABS=_F(  FONCTION = REFEX)    )
MXREFEX  = INFO_FONCTION( MAX=_F(  FONCTION = ABSREFEX)    )
IMPR_TABLE(TABLE=MXREFEX)

# RECHERCHE DE LA VALEUR MAXIMUM DE LA VALEUR ABSOLUE DE LA DIFFERENCE 
# ENTRE LA FONCTION REFEX ET LA FONCTION FETA (RESULTATS ASTER)

ABSDIFFX  = CALC_FONCTION( ABS=_F(  FONCTION = DIFFX)    )
MXDIFFX   = INFO_FONCTION( MAX=_F(  FONCTION = ABSDIFFX)    )
IMPR_TABLE(TABLE=MXDIFFX)

TEST_TABLE(TABLE=MXREFEX,
           FILTRE=(_F(NOM_PARA='FONCTION',VALE_K='ABSREFEX'),
                   _F(NOM_PARA='TYPE',    VALE_K='MAXI',),),
           NOM_PARA='TOUTRESU',
           VALE=1.,
           PRECISION=0.001,
           REFERENCE='ANALYTIQUE',);

TEST_TABLE(TABLE=MXDIFFX,
           FILTRE=(_F(NOM_PARA='FONCTION',VALE_K='ABSDIFFX'),
                   _F(NOM_PARA='TYPE',    VALE_K='MAXI',),),
           NOM_PARA='ETA_PILO',
           VALE=0.714,
           PRECISION=0.001,
           REFERENCE='ANALYTIQUE',);

# ON TRACE LES COURBES RESULTATS ASTER

IMPR_FONCTION(FORMAT='XMGRACE',
              UNITE=25,
              COURBE=(_F(FONC_X=FDZ,FONC_Y=FETA,
                         LEGENDE='ASTER_DZ',),
                      _F(FONCTION=REFEZ,
                         LEGENDE='REFERENCE_DZ',),
                      _F(FONC_X=FDX,FONC_Y=FETA,
                         LEGENDE='ASTER_DX',),
                      _F(FONCTION=REFEX,
                         LEGENDE='REFERENCE_DX',),
                      ),
              BORNE_X=(0.0,8.0,),
              BORNE_Y=(0.0,1.0,),
              GRILLE_X=0.5,
              GRILLE_Y=0.05,
              LEGENDE_X='Instant',
              LEGENDE_Y='P/Pmax',);



FIN();
