# ======================================================================
# COPYRIGHT (C) 1991 - 2016  EDF R&D                  WWW.CODE-ASTER.ORG
# THIS PROGRAM IS FREE SOFTWARE; YOU CAN REDISTRIBUTE IT AND/OR MODIFY
# IT UNDER THE TERMS OF THE GNU GENERAL PUBLIC LICENSE AS PUBLISHED BY
# THE FREE SOFTWARE FOUNDATION; EITHER VERSION 2 OF THE LICENSE, OR
# (AT YOUR OPTION) ANY LATER VERSION.
#
# THIS PROGRAM IS DISTRIBUTED IN THE HOPE THAT IT WILL BE USEFUL, BUT
# WITHOUT ANY WARRANTY; WITHOUT EVEN THE IMPLIED WARRANTY OF
# MERCHANTABILITY OR FITNESS FOR A PARTICULAR PURPOSE. SEE THE GNU
# GENERAL PUBLIC LICENSE FOR MORE DETAILS.
#
# YOU SHOULD HAVE RECEIVED A COPY OF THE GNU GENERAL PUBLIC LICENSE
# ALONG WITH THIS PROGRAM; IF NOT, WRITE TO EDF R&D CODE_ASTER,
#    1 AVENUE DU GENERAL DE GAULLE, 92141 CLAMART CEDEX, FRANCE.
# ======================================================================

DEBUT(CODE=_F(NIV_PUB_WEB='INTERNET'),DEBUG=_F(SDVERI='OUI'))

#-----------------------------------------------------------------------
# VALIDATION DU MODELE GRILLE_PINTO_MEN EN PLASTICITE
# TEMPERATRE IMPOSEE PAR NAPPE
#-----------------------------------------------------------------------

MAILL1=LIRE_MAILLAGE(   )


MAILTOT=CREA_MAILLAGE(
               MAILLAGE=MAILL1,
               CREA_MAILLE=_F(
                   NOM = 'GEOBB',
                   GROUP_MA = 'GEOB',
                   PREF_MAILLE = 'B',
                              )
                           )
#
# -----------------------------------------------------
# DEFINITION DES MATERIAUX
# -----------------------------------------------------
#

ACIER=DEFI_MATERIAU(   ELAS=_F(  E = 2.E11,
                                    NU = 0.3,
                                    ALPHA = 1.E-5,         ),
                  PINTO_MENEGOTTO=_F(  SY = 2.E8,
                                    EPSI_ULTM = 3.E-2,
                                    SIGM_ULTM = 2.58E8,
                                    EPSP_HARD = 0.0023,
                                    R_PM = 20.0,
                                    EP_SUR_E = 0.01,
                                    A1_PM = 18.5,
                                    A2_PM = 0.15,
                                    ELAN = 4.9,
                                    A6_PM = 620.0,
                                    C_PM = 0.5,
                                    A_PM = 0.008,          )

                           )


#
# -------------------------------------------------
# AFFECTATION DES MODELES
# -------------------------------------------------
#
LEMOD=AFFE_MODELE(    MAILLAGE=MAILTOT,     
                        AFFE=_F(  GROUP_MA = ('GEOB','GEOBB',),
                               PHENOMENE = 'MECANIQUE',
                               MODELISATION = 'GRILLE_EXCENTRE',
                             )
                      )

# -------------------------------------------------
# AFFECTATION DES CARACTERISTIQUES
# -------------------------------------------------
#
LACAR=AFFE_CARA_ELEM(    MODELE=LEMOD,
                       GRILLE=(
                             _F( GROUP_MA = 'GEOB',
                                SECTION = .01,
                                ANGL_REP = (0.0, 0.0,),
                                EXCENTREMENT = 0.0,
                               ),
                             _F( GROUP_MA = 'GEOBB',
                                SECTION = .01,
                                ANGL_REP = (90.0, 0.0,),
                                EXCENTREMENT = 0.0,
                               ),),
                        )

# -------------------------------------------------
# CONSTRUCTION DU CHAMP DE TEMPERATURE POUR
# TENTER DE REPRODUIRE LA PRECONTRAINTE
# ------------------------------------------------
#

F1_T=DEFI_FONCTION(

                   NOM_PARA='INST',
                 PROL_DROITE='EXCLU',
                PROL_GAUCHE='EXCLU',

                VALE=(
                0.0,         50.0,
                1.0,       -300.0,
                2.0,       -100.0,
                3.0,         50.0,
                4.0,       -150.0,
                5.0,       -350.0,
                6.0,       -200.0,
                )
              )

LATEMP=CREA_CHAMP(
   OPERATION='AFFE', TYPE_CHAM='NOEU_TEMP_F',
   MAILLAGE=MAILTOT,
   AFFE=_F(  GROUP_MA = ('GEOB','GEOBB'),   NOM_CMP = 'TEMP',   VALE_F = F1_T,  )
)


TEMPER=CREA_RESU(
   OPERATION='AFFE', TYPE_RESU='EVOL_THER', NOM_CHAM='TEMP',
   AFFE= _F(
      INST=(0.,1.,2.,3.,4.,5.,6.,),
      CHAM_GD = LATEMP,
   ),
)


#
# -------------------------------------------------
# AFFECTATION DES MATERIAUX
# -------------------------------------------------
#
MATAF=AFFE_MATERIAU(    MAILLAGE=MAILTOT,
                          AFFE=(
                          _F(  GROUP_MA = 'GEOB',
                                 MATER = ACIER,
                               ),
                          _F(  GROUP_MA = 'GEOBB',
                                 MATER = ACIER,

                               ),),
                          AFFE_VARC=_F(GROUP_MA=('GEOB','GEOBB'),
                              EVOL=TEMPER,
                              NOM_VARC='TEMP',
                              NOM_CHAM='TEMP',
                              VALE_REF=50),
                     )


# ----------------------------------------------
# CHARGEMENT
# ----------------------------------------------
#
ZCHM=AFFE_CHAR_MECA(
             MODELE=LEMOD,
             DDL_IMPO=_F(  TOUT = 'OUI',
                       DX = 0.,   DY = 0.,   DZ = 0.,
                       DRX = 0.,   DRY = 0.,   DRZ = 0.,  )
                       )

#
# ----------------------------------------------
# CALCUL
# ----------------------------------------------
#


ZLIST=DEFI_LIST_REEL(   DEBUT=0.,
             INTERVALLE=_F( JUSQU_A = 10.0,  NOMBRE = 10, )
           )

LEDEP=STAT_NON_LINE(
                MODELE=LEMOD,
                CHAM_MATER=MATAF,
                CARA_ELEM=LACAR,
                EXCIT=_F(            CHARGE = ZCHM,            ),
                COMPORTEMENT=_F(        RELATION = 'GRILLE_PINTO_MEN',  ),
                INCREMENT=_F(        LIST_INST = ZLIST,
                                     NUME_INST_FIN = 6,        ),
                NEWTON=_F(           MATRICE = 'TANGENTE',
                                     REAC_ITER = 10,           ),
                CONVERGENCE=_F(      RESI_GLOB_MAXI = 1.E-3,
                                     ITER_GLOB_MAXI = 30,      ),
                RECH_LINEAIRE=_F(    ITER_LINE_MAXI = 10,
                )
              )

LEDEP=CALC_CHAMP(reuse=LEDEP,CONTRAINTE=('SIGM_ELNO'),VARI_INTERNE=('VARI_ELNO'),RESULTAT=LEDEP)


#
# -------------------------------------------------
# POST TRAITEMENT DES RESULTATS
# -------------------------------------------------
#
TEST_RESU(RESU=(_F(INST=1.0,
                   RESULTAT=LEDEP,
                   NOM_CHAM='SIGM_ELNO',
                   NOEUD='NO1',
                   NOM_CMP='SIXX',
                   VALE_CALC=2.0941609565468E+08,
                   MAILLE='MA1',),
                _F(INST=1.0,
                   RESULTAT=LEDEP,
                   NOM_CHAM='SIGM_ELNO',
                   NOEUD='NO1',
                   NOM_CMP='SIXX',
                   VALE_CALC=2.0941609565468E+08,
                   MAILLE='BMA1',),
                _F(INST=2.0,
                   RESULTAT=LEDEP,
                   NOM_CHAM='SIGM_ELNO',
                   NOEUD='NO1',
                   NOM_CMP='SIXX',
                   VALE_CALC=-1.2155485877041E+08,
                   MAILLE='MA1',),
                _F(INST=2.0,
                   RESULTAT=LEDEP,
                   NOM_CHAM='SIGM_ELNO',
                   NOEUD='NO1',
                   NOM_CMP='SIXX',
                   VALE_CALC=-1.2155485877041E+08,
                   MAILLE='BMA1',),
                _F(INST=3.0,
                   RESULTAT=LEDEP,
                   NOM_CHAM='SIGM_ELNO',
                   NOEUD='NO1',
                   NOM_CMP='SIXX',
                   VALE_CALC=-1.8286195146125E+08,
                   MAILLE='MA1',),
                _F(INST=3.0,
                   RESULTAT=LEDEP,
                   NOM_CHAM='SIGM_ELNO',
                   NOEUD='NO1',
                   NOM_CMP='SIXX',
                   VALE_CALC=-1.8286195146125E+08,
                   MAILLE='BMA1',),
                _F(INST=4.0,
                   RESULTAT=LEDEP,
                   NOM_CHAM='SIGM_ELNO',
                   NOEUD='NO1',
                   NOM_CMP='SIXX',
                   VALE_CALC=1.5216414113209E+08,
                   MAILLE='MA1',),
                _F(INST=4.0,
                   RESULTAT=LEDEP,
                   NOM_CHAM='SIGM_ELNO',
                   NOEUD='NO1',
                   NOM_CMP='SIXX',
                   VALE_CALC=1.5216414113209E+08,
                   MAILLE='BMA1',),
                _F(INST=5.0,
                   RESULTAT=LEDEP,
                   NOM_CHAM='SIGM_ELNO',
                   NOEUD='NO1',
                   NOM_CMP='SIXX',
                   VALE_CALC=2.0250589033949E+08,
                   MAILLE='MA1',),
                _F(INST=5.0,
                   RESULTAT=LEDEP,
                   NOM_CHAM='SIGM_ELNO',
                   NOEUD='NO1',
                   NOM_CMP='SIXX',
                   VALE_CALC=2.0250589033949E+08,
                   MAILLE='BMA1',),
                _F(INST=6.0,
                   RESULTAT=LEDEP,
                   NOM_CHAM='SIGM_ELNO',
                   NOEUD='NO1',
                   NOM_CMP='SIXX',
                   VALE_CALC=-7.5930716008754E+07,
                   MAILLE='MA1',),
                _F(INST=6.0,
                   RESULTAT=LEDEP,
                   NOM_CHAM='SIGM_ELNO',
                   NOEUD='NO1',
                   NOM_CMP='SIXX',
                   VALE_CALC=-7.5930716008755E+07,
                   MAILLE='BMA1',),
                ),
          )

FIN()
#
#
