# MODIF  DATE 10/10/2012   AUTEUR COURTOIS M.COURTOIS 
# RESPONSABLE JMBHH01 J.M.PROIX
# TITRE ANNEAU AVEC RAIDISSEUR SOUS PRESSION EXTERNE
# ssns102a.para = tps_job 60 mem_job 512Mo ncpus 1 liste_test S
#            CONFIGURATION MANAGEMENT OF EDF VERSION
# ======================================================================
# COPYRIGHT (C) 1991 - 2012  EDF R&D                  WWW.CODE-ASTER.ORG
# THIS PROGRAM IS FREE SOFTWARE; YOU CAN REDISTRIBUTE IT AND/OR MODIFY
# IT UNDER THE TERMS OF THE GNU GENERAL PUBLIC LICENSE AS PUBLISHED BY
# THE FREE SOFTWARE FOUNDATION; EITHER VERSION 2 OF THE LICENSE, OR
# (AT YOUR OPTION) ANY LATER VERSION.
#
# THIS PROGRAM IS DISTRIBUTED IN THE HOPE THAT IT WILL BE USEFUL, BUT
# WITHOUT ANY WARRANTY; WITHOUT EVEN THE IMPLIED WARRANTY OF
# MERCHANTABILITY OR FITNESS FOR A PARTICULAR PURPOSE. SEE THE GNU
# GENERAL PUBLIC LICENSE FOR MORE DETAILS.
#
# YOU SHOULD HAVE RECEIVED A COPY OF THE GNU GENERAL PUBLIC LICENSE
# ALONG WITH THIS PROGRAM; IF NOT, WRITE TO EDF R&D CODE_ASTER,
#    1 AVENUE DU GENERAL DE GAULLE, 92141 CLAMART CEDEX, FRANCE.
# ======================================================================


DEBUT(CODE=_F(NOM='SSNS102A',NIV_PUB_WEB='INTERNET',VISU_EFICAS='NON'),DEBUG=_F(SDVERI='OUI'))

interactif=0
impr_gmsh=0

MAIL=LIRE_MAILLAGE(FORMAT='MED',);

MAIL=MODI_MAILLAGE(reuse=MAIL,MAILLAGE=MAIL,
ORIE_SHB=_F(GROUP_MA='GEOTOT'),)


MODMECA=AFFE_MODELE(MAILLAGE=MAIL,
                    AFFE=_F(TOUT='OUI',
                            PHENOMENE='MECANIQUE',
                            MODELISATION='SHB',),);


MAIL=MODI_MAILLAGE(MAILLAGE=MAIL,reuse=MAIL,
                   ORIE_PEAU_3D=_F(GROUP_MA='SUEXTEXT',),
                   );

MAT=DEFI_MATERIAU(ELAS=_F(E=2.0E11,
                          NU=0.3,),);

CHM=AFFE_MATERIAU(MAILLAGE=MAIL,
                  AFFE=_F(TOUT='OUI',
                          MATER=MAT,),);


CHARCL=AFFE_CHAR_MECA(MODELE=MODMECA,
                      DDL_IMPO=(_F(GROUP_MA=('SU0'),
                                   DY=0.0,),
                                _F(GROUP_MA='SU90',
                                   DX=0.0,),
                                _F(GROUP_MA='SUINF',
                                   DZ=0.0,),
#                                _F(GROUP_MA='SUSUP',
#                                   DZ=0.0,),
                                ),)

# perturbation

CHARGT=AFFE_CHAR_MECA(MODELE=MODMECA,
                      FORCE_NODALE=(_F(GROUP_NO='P4',
                                      FX=-500.,),
                                   _F(GROUP_NO='P11',
                                      FX=-500.,),
                                      ),
                                    )


CHARGP=AFFE_CHAR_MECA(MODELE=MODMECA,
                      PRES_REP=_F(GROUP_MA='SUEXTEXT',
                                   PRES=5.57493E+6,),);

# CHARGE CRITIQUE FLAMBAGE D EULER

##########################################################

###### MATRICE DE RIGIDITE ELEMENTAIRE
#
MATR=CALC_MATR_ELEM(MODELE=MODMECA,
                    CHARGE=CHARCL,
                    CHAM_MATER=CHM,
                    OPTION='RIGI_MECA' )

###### MATRICE DE RIGIDITE ASSEMBLEE
#
NU=NUME_DDL(MATR_RIGI=MATR)
MATASS_1=ASSE_MATRICE(MATR_ELEM=MATR, NUME_DDL=NU)


###### DEPLACEMENT INITIAL
#
RESU=MECA_STATIQUE(MODELE=MODMECA,
                   CHAM_MATER=CHM,
                   EXCIT=(_F(CHARGE=CHARCL,),
                          _F(CHARGE=CHARGP,),),);


###### ETAT DE CONTRAINTES
#
SIGMA_1=CREA_CHAMP( OPERATION='EXTR', TYPE_CHAM='ELGA_SIEF_R',
                    RESULTAT=RESU, NUME_ORDRE=1,
                    NOM_CHAM='SIEF_ELGA' ),

#
###### MATRICE DE RIGIDITE GEOMETRIQUE ELEMENTAIRE
#
RIGELG_1=CALC_MATR_ELEM( MODELE=MODMECA,
                         OPTION='RIGI_GEOM',
                         SIEF_ELGA=SIGMA_1 )

###### MATRICE DE RIGIDITE GEOMETRIQUE ASSEMBLEE
#
RIGASG_1=ASSE_MATRICE(MATR_ELEM=RIGELG_1,NUME_DDL=NU)

##### RESOLUTION DU PROBLEME DE VALEURS PROPRES
#
MOD_1=MODE_ITER_SIMULT( MATR_RIGI=MATASS_1,
                        MATR_RIGI_GEOM=RIGASG_1,
                        TYPE_RESU='MODE_FLAMB',
                        CALC_CHAR_CRIT =_F (OPTION ='PLUS_PETITE',
                                       NMAX_CHAR_CRIT = 1,),
                        )


# REFERENCE CODE INCA INSA LYON
TEST_RESU(RESU=_F(PARA='CHAR_CRIT',
                  NUME_MODE=1,
                  REFERENCE='SOURCE_EXTERNE',
                  RESULTAT=MOD_1,
                  VALE_CALC=-1.239926390,
                  VALE_REFE=-1.275226,
                  PRECISION=0.029999999999999999,),
          )

if impr_gmsh==1 :
   IMPR_RESU( MODELE=MODMECA,
              FORMAT='GMSH',UNITE=55,
              RESU=_F( RESULTAT=MOD_1,
                       NOM_CHAM='DEPL', ), );


D_FONC=DEFI_FONCTION(NOM_PARA='INST',
                     VALE=(0.0,0.0,10000.0,10000.0,),);

L_INST=DEFI_LIST_REEL(DEBUT=0.0,
                      INTERVALLE=(_F(JUSQU_A=.9,
                                    PAS=0.1,),
                                  _F(JUSQU_A=1.21,
                                    PAS=0.01,),
                                    ),
                    );

LISTPILO=DEFI_LIST_REEL(DEBUT=0.0,
                        INTERVALLE=_F(JUSQU_A=0.03,
                                      NOMBRE=30,),);

# SANS PRESSION SUIVEUSE, SOLUTION DE REFERENCE INCA

NONLIN=STAT_NON_LINE(MODELE=MODMECA,
                     CHAM_MATER=CHM,
                     EXCIT=(
                              _F(CHARGE=CHARCL),
                              _F(CHARGE=CHARGT,
#                              TYPE_CHARGE='FIXE_PILO',),
                              FONC_MULT=D_FONC,),
                            _F(CHARGE=CHARGP,
                            #  TYPE_CHARGE='SUIV',
                              FONC_MULT=D_FONC,),),
                     COMP_INCR=_F(RELATION='ELAS',
                                  DEFORMATION='GROT_GDEP',
                                  TOUT='OUI',),
#                     INCREMENT=_F(LIST_INST=LISTPILO,
                     INCREMENT=_F(LIST_INST=L_INST,),
                     NEWTON=_F(REAC_ITER=0,),
#                     PILOTAGE=_F(TYPE='DDL_IMPO',
#                                 COEF_MULT=-1.0,
#                                 GROUP_NO='P1',
#                                 NOM_CMP='DX',),
                     CONVERGENCE=_F(RESI_GLOB_RELA=1E-06,
                                    ITER_GLOB_MAXI=155,),);

if impr_gmsh==1 :
   IMPR_RESU( MODELE=MODMECA,
              FORMAT='GMSH', UNITE=56,
          RESU=(_F( RESULTAT=NONLIN, INST=0.9,
                    NOM_CHAM='DEPL',),
                _F( RESULTAT=NONLIN,INST=0.9,
                    NOM_CHAM='SIEF_ELGA',NOM_CMP=('SIXX','SIYY','SIZZ'),),
                   ),);

TABDX=POST_RELEVE_T(ACTION=_F(INTITULE='F',
                              GROUP_NO='P1',
                              RESULTAT=NONLIN,
                              NOM_CHAM='DEPL',
                              TOUT_ORDRE='OUI',
                              NOM_CMP='DX',
                              OPERATION='EXTRACTION',),);

FETA=RECU_FONCTION(TABLE=TABDX,INTERPOL='LIN',PROL_GAUCHE='CONSTANT',PROL_DROITE='CONSTANT',
                  PARA_X='INST',
                  PARA_Y='DX',);

#FETA=RECU_FONCTION(RESULTAT=NONLIN,
#                   NOM_PARA_RESU='ETA_PILOTAGE',);


IMPR_FONCTION( FORMAT='TABLEAU',
            COURBE=( _F(FONCTION=FETA,),
                    ),);

# SANS PRESSION SUIVEUSE, NON REGRESSION

TEST_FONCTION(VALEUR=(_F(VALE_CALC=-6.3028071937186003E-4,
                         TOLE_MACHINE=1.E-3,
                         VALE_PARA=0.10000000000000001,
                         FONCTION=FETA,
                         ),
                      _F(VALE_CALC=-1.2633738827334999E-3,
                         TOLE_MACHINE=1.E-3,
                         VALE_PARA=0.20000000000000001,
                         FONCTION=FETA,
                         ),
                      _F(VALE_CALC=-1.9008105794450999E-3,
                         TOLE_MACHINE=1.E-3,
                         VALE_PARA=0.30009999999999998,
                         FONCTION=FETA,
                         ),
                      _F(VALE_CALC=-2.541935297019E-3,
                         TOLE_MACHINE=1.E-3,
                         VALE_PARA=0.40000000000000002,
                         FONCTION=FETA,
                         ),
                      _F(VALE_CALC=-3.1900284421506999E-3,
                         TOLE_MACHINE=1.E-3,
                         VALE_PARA=0.49990000000000001,
                         FONCTION=FETA,
                         ),
                      _F(VALE_CALC=-3.8469937305524002E-3,
                         TOLE_MACHINE=1.E-3,
                         VALE_PARA=0.59960000000000002,
                         FONCTION=FETA,
                         ),
                      _F(VALE_CALC=-4.5156722735406E-3,
                         TOLE_MACHINE=1.E-3,
                         VALE_PARA=0.69869999999999999,
                         FONCTION=FETA,
                         ),
                      _F(VALE_CALC=-5.2005744161021002E-3,
                         TOLE_MACHINE=1.E-3,
                         VALE_PARA=0.7964,
                         FONCTION=FETA,
                         ),
                      _F(VALE_CALC=-5.9087716001035998E-3,
                         TOLE_MACHINE=1.E-3,
                         VALE_PARA=0.89090000000000003,
                         FONCTION=FETA,
                         ),
                      ),
              )

 # solution de reference INCA SANS PRESSION SUIVEUSE

INCA=DEFI_FONCTION(NOM_PARA='INST',INTERPOL='LIN',PROL_DROITE='CONSTANT',PROL_GAUCHE='CONSTANT',
                   VALE=(
1.000E-01, -6.414E-04,
2.000E-01, -1.288E-03,
3.001E-01, -1.942E-03,
4.000E-01, -2.604E-03,
4.999E-01, -3.279E-03,
5.996E-01, -3.971E-03,
6.987E-01, -4.688E-03,
7.964E-01, -5.443E-03,
8.909E-01, -6.256E-03,
9.768E-01, -7.142E-03,
1.056E+00, -8.254E-03,
1.103E+00, -9.278E-03,
1.130E+00, -1.020E-02,
1.148E+00, -1.106E-02,
1.160E+00, -1.189E-02,
1.169E+00, -1.271E-02,
1.175E+00, -1.351E-02,
1.181E+00, -1.430E-02,
1.185E+00, -1.509E-02,
1.188E+00, -1.587E-02,
# ... 4 like lines cut
),);

TEST_FONCTION(VALEUR=(_F(VALE_CALC=-6.3028071937186003E-4,
                         TOLE_MACHINE=1.E-3,
                         VALE_PARA=0.10000000000000001,
                         FONCTION=FETA,
                         ),
                      _F(VALE_CALC=-1.2633738827334999E-3,
                         TOLE_MACHINE=1.E-3,
                         VALE_PARA=0.20000000000000001,
                         FONCTION=FETA,
                         ),
                      _F(VALE_CALC=-1.9008105794450999E-3,
                         TOLE_MACHINE=1.E-3,
                         VALE_PARA=0.30009999999999998,
                         FONCTION=FETA,
                         ),
                      _F(VALE_CALC=-2.541935297019E-3,
                         TOLE_MACHINE=1.E-3,
                         VALE_PARA=0.40000000000000002,
                         FONCTION=FETA,
                         ),
                      _F(VALE_CALC=-3.1900284421506999E-3,
                         TOLE_MACHINE=1.E-3,
                         VALE_PARA=0.49990000000000001,
                         FONCTION=FETA,
                         ),
                      _F(VALE_CALC=-3.8469937305524002E-3,
                         TOLE_MACHINE=1.E-3,
                         VALE_PARA=0.59960000000000002,
                         FONCTION=FETA,
                         ),
                      _F(VALE_CALC=-4.5156722735406E-3,
                         TOLE_MACHINE=1.E-3,
                         VALE_PARA=0.69869999999999999,
                         FONCTION=FETA,
                         ),
                      _F(VALE_CALC=-5.2005744161021002E-3,
                         TOLE_MACHINE=1.E-3,
                         VALE_PARA=0.7964,
                         FONCTION=FETA,
                         ),
                      _F(VALE_CALC=-5.9087716001035998E-3,
                         TOLE_MACHINE=1.E-3,
                         VALE_PARA=0.89090000000000003,
                         FONCTION=FETA,
                         ),
                      ),
              )

TEST_FONCTION(VALEUR=(_F(VALE_CALC=-0.000630280719372,
                         VALE_REFE=-6.4139999999999998E-4,
                         VALE_PARA=0.10000000000000001,
                         REFERENCE='SOURCE_EXTERNE',
                         PRECISION=0.059999999999999998,
                         FONCTION=FETA,),
                      _F(VALE_CALC=-0.00126337388273,
                         VALE_REFE=-1.2880000000000001E-3,
                         VALE_PARA=0.20000000000000001,
                         REFERENCE='SOURCE_EXTERNE',
                         PRECISION=0.059999999999999998,
                         FONCTION=FETA,),
                      _F(VALE_CALC=-0.00190081057945,
                         VALE_REFE=-1.9419999999999999E-3,
                         VALE_PARA=0.30009999999999998,
                         REFERENCE='SOURCE_EXTERNE',
                         PRECISION=0.059999999999999998,
                         FONCTION=FETA,),
                      _F(VALE_CALC=-0.00254193529702,
                         VALE_REFE=-2.604E-3,
                         VALE_PARA=0.40000000000000002,
                         REFERENCE='SOURCE_EXTERNE',
                         PRECISION=0.059999999999999998,
                         FONCTION=FETA,),
                      _F(VALE_CALC=-0.00319002844215,
                         VALE_REFE=-3.2789999999999998E-3,
                         VALE_PARA=0.49990000000000001,
                         REFERENCE='SOURCE_EXTERNE',
                         PRECISION=0.059999999999999998,
                         FONCTION=FETA,),
                      _F(VALE_CALC=-0.00384699373055,
                         VALE_REFE=-3.9709999999999997E-3,
                         VALE_PARA=0.59960000000000002,
                         REFERENCE='SOURCE_EXTERNE',
                         PRECISION=0.059999999999999998,
                         FONCTION=FETA,),
                      _F(VALE_CALC=-0.00451567227354,
                         VALE_REFE=-4.6880000000000003E-3,
                         VALE_PARA=0.69869999999999999,
                         REFERENCE='SOURCE_EXTERNE',
                         PRECISION=0.059999999999999998,
                         FONCTION=FETA,),
                      _F(VALE_CALC=-0.0052005744161,
                         VALE_REFE=-5.4429999999999999E-3,
                         VALE_PARA=0.7964,
                         REFERENCE='SOURCE_EXTERNE',
                         PRECISION=0.059999999999999998,
                         FONCTION=FETA,),
                      _F(VALE_CALC=-0.0059087716001,
                         VALE_REFE=-6.2560000000000003E-3,
                         VALE_PARA=0.89090000000000003,
                         REFERENCE='SOURCE_EXTERNE',
                         PRECISION=0.059999999999999998,
                         FONCTION=FETA,),
                      ),
              )

IMPR_FONCTION(UNITE=8,
            FORMAT='TABLEAU',
            COURBE=(_F(FONCTION=INCA,),
                    _F(FONCTION=FETA,),),);


DIFF=CALC_FONCTION(COMB=(
                          _F(  FONCTION = FETA, COEF =  1.),
                          _F(  FONCTION = INCA, COEF = -1.),
                          ) )

IMPR_FONCTION(UNITE=8,
            FORMAT='TABLEAU',
            COURBE=(_F(FONCTION=DIFF,),),);

###liste1,liste2=INCA.Valeurs()
###valmax1=max([abs(v) for v in liste2])
valmax1=0.1959

TOLE=0.05*valmax1

# COMPARAISON A LA SOLUTION INCA

TEST_FONCTION(VALEUR=(_F(VALE_CALC=1.11192806281e-05,
                         VALE_REFE=0.0,
                         CRITERE='ABSOLU',
                         VALE_PARA=0.10000000000000001,
                         REFERENCE='SOURCE_EXTERNE',
                         PRECISION=9.7949999999999999E-3,
                         FONCTION=DIFF,),
                      _F(VALE_CALC=2.46261172667e-05,
                         VALE_REFE=0.0,
                         CRITERE='ABSOLU',
                         VALE_PARA=0.20000000000000001,
                         REFERENCE='SOURCE_EXTERNE',
                         PRECISION=9.7949999999999999E-3,
                         FONCTION=DIFF,),
                      _F(VALE_CALC=4.11778403855e-05,
                         VALE_REFE=0.0,
                         CRITERE='ABSOLU',
                         VALE_PARA=0.29999999999999999,
                         REFERENCE='SOURCE_EXTERNE',
                         PRECISION=9.7949999999999999E-3,
                         FONCTION=DIFF,),
                      _F(VALE_CALC=6.20647029807e-05,
                         VALE_REFE=0.0,
                         CRITERE='ABSOLU',
                         VALE_PARA=0.40000000000000002,
                         REFERENCE='SOURCE_EXTERNE',
                         PRECISION=9.7949999999999999E-3,
                         FONCTION=DIFF,),
                      _F(VALE_CALC=8.90168982089e-05,
                         VALE_REFE=0.0,
                         CRITERE='ABSOLU',
                         VALE_PARA=0.5,
                         REFERENCE='SOURCE_EXTERNE',
                         PRECISION=9.7949999999999999E-3,
                         FONCTION=DIFF,),
                      _F(VALE_CALC=0.000124264506442,
                         VALE_REFE=0.0,
                         CRITERE='ABSOLU',
                         VALE_PARA=0.59999999999999998,
                         REFERENCE='SOURCE_EXTERNE',
                         PRECISION=9.7949999999999999E-3,
                         FONCTION=DIFF,),
                      _F(VALE_CALC=0.000173601186497,
                         VALE_REFE=0.0,
                         CRITERE='ABSOLU',
                         VALE_PARA=0.69999999999999996,
                         REFERENCE='SOURCE_EXTERNE',
                         PRECISION=9.7949999999999999E-3,
                         FONCTION=DIFF,),
                      _F(VALE_CALC=0.000248147361477,
                         VALE_REFE=0.0,
                         CRITERE='ABSOLU',
                         VALE_PARA=0.80000000000000004,
                         REFERENCE='SOURCE_EXTERNE',
                         PRECISION=9.7949999999999999E-3,
                         FONCTION=DIFF,),
                      _F(VALE_CALC=0.00037271881753,
                         VALE_REFE=0.0,
                         CRITERE='ABSOLU',
                         VALE_PARA=0.90000000000000002,
                         REFERENCE='SOURCE_EXTERNE',
                         PRECISION=9.7949999999999999E-3,
                         FONCTION=DIFF,),
                      _F(VALE_CALC=0.000396270140253,
                         VALE_REFE=0.0,
                         CRITERE='ABSOLU',
                         VALE_PARA=0.91000000000000003,
                         REFERENCE='SOURCE_EXTERNE',
                         PRECISION=9.7949999999999999E-3,
                         FONCTION=DIFF,),
                      _F(VALE_CALC=0.000418693407102,
                         VALE_REFE=0.0,
                         CRITERE='ABSOLU',
                         VALE_PARA=0.92000000000000004,
                         REFERENCE='SOURCE_EXTERNE',
                         PRECISION=9.7949999999999999E-3,
                         FONCTION=DIFF,),
                      _F(VALE_CALC=0.000439889283465,
                         VALE_REFE=0.0,
                         CRITERE='ABSOLU',
                         VALE_PARA=0.93000000000000005,
                         REFERENCE='SOURCE_EXTERNE',
                         PRECISION=9.7949999999999999E-3,
                         FONCTION=DIFF,),
                      _F(VALE_CALC=0.000459735535967,
                         VALE_REFE=0.0,
                         CRITERE='ABSOLU',
                         VALE_PARA=0.93999999999999995,
                         REFERENCE='SOURCE_EXTERNE',
                         PRECISION=9.7949999999999999E-3,
                         FONCTION=DIFF,),
                      _F(VALE_CALC=0.000478091454864,
                         VALE_REFE=0.0,
                         CRITERE='ABSOLU',
                         VALE_PARA=0.94999999999999996,
                         REFERENCE='SOURCE_EXTERNE',
                         PRECISION=9.7949999999999999E-3,
                         FONCTION=DIFF,),
                      _F(VALE_CALC=0.00049480141935,
                         VALE_REFE=0.0,
                         CRITERE='ABSOLU',
                         VALE_PARA=0.95999999999999996,
                         REFERENCE='SOURCE_EXTERNE',
                         PRECISION=9.7949999999999999E-3,
                         FONCTION=DIFF,),
                      ),
              )

FIN();






