# person_in_charge: sebastien.fayolle at edf.fr
# TITRE  : ENDOMMAGEMENT D UNE PLAQUE PLANE SOUS SOLLICITATIONS VARIEES
# ======================================================================
# COPYRIGHT (C) 1991 - 2013  EDF R&D                  WWW.CODE-ASTER.ORG
# THIS PROGRAM IS FREE SOFTWARE; YOU CAN REDISTRIBUTE IT AND/OR MODIFY
# IT UNDER THE TERMS OF THE GNU GENERAL PUBLIC LICENSE AS PUBLISHED BY
# THE FREE SOFTWARE FOUNDATION; EITHER VERSION 2 OF THE LICENSE, OR
# (AT YOUR OPTION) ANY LATER VERSION.
#
# THIS PROGRAM IS DISTRIBUTED IN THE HOPE THAT IT WILL BE USEFUL, BUT
# WITHOUT ANY WARRANTY; WITHOUT EVEN THE IMPLIED WARRANTY OF
# MERCHANTABILITY OR FITNESS FOR A PARTICULAR PURPOSE. SEE THE GNU
# GENERAL PUBLIC LICENSE FOR MORE DETAILS.
#
# YOU SHOULD HAVE RECEIVED A COPY OF THE GNU GENERAL PUBLIC LICENSE
# ALONG WITH THIS PROGRAM; IF NOT, WRITE TO EDF R&D CODE_ASTER,
#    1 AVENUE DU GENERAL DE GAULLE, 92141 CLAMART CEDEX, FRANCE.
# ======================================================================
#  DETAILS : MODELISATION : MULTI-COUCHES
#                          (DKT- ENDO_ISOT_BETON+2*GRILLE ACIER)
#                                           VS.
#                           DKTG (KIT_DDI - GLRC_DM + VMIS_CINE_LINE)
#            MAILLAGE     : TRIA3
#            CHARGEMENT   : CYCLIQUE TRACTION - COMPRESSION

DEBUT(CODE=_F(NOM='SSNS106F',
              NIV_PUB_WEB='INTERNET',),
      DEBUG=_F(SDVERI='OUI',),);

EP = 0.1;

DEP0 = 0.003;

t1 = 1.0;

t2 = 2.0;

tmax = 2.04;

dt = 8.5e-3;

fx = 500000.0;


MAIL=LIRE_MAILLAGE(FORMAT='MED',);

MAIL=DEFI_GROUP(reuse =MAIL,
                MAILLAGE=MAIL,
                CREA_GROUP_NO=(_F(GROUP_MA='A1A2',),
                               _F(GROUP_MA='A4A3',),
                               _F(GROUP_MA='A2A4',),
                               _F(GROUP_MA='A3A1',),),);

MAIL=MODI_MAILLAGE(reuse =MAIL,
                   MAILLAGE=MAIL,
                   ORIE_NORM_COQUE=_F(GROUP_MA='DALLE',
                                      VECT_NORM=(0.,0.,1.,),
                                      GROUP_NO='A1',),);

MA=CREA_MAILLAGE(MAILLAGE=MAIL,
                 CREA_GROUP_MA=(_F(NOM='ACIER2L',
                                   GROUP_MA='DALLE',
                                   PREF_MAILLE='A2L',),
                                _F(NOM='ACIER1T',
                                   GROUP_MA='DALLE',
                                   PREF_MAILLE='A1T',),
                                _F(NOM='ACIER2T',
                                   GROUP_MA='DALLE',
                                   PREF_MAILLE='A2T',),
                                _F(NOM='ACIER1L',
                                   GROUP_MA='DALLE',
                                   PREF_MAILLE='A1L',),
                                _F(NOM='ACIER1',
                                   GROUP_MA='DALLE',
                                   PREF_MAILLE='A1',),
                                _F(NOM='DALLE_G',
                                   GROUP_MA='DALLE',
                                   PREF_MAILLE='G',),
                                _F(NOM='ACIER2',
                                   GROUP_MA='DALLE',
                                   PREF_MAILLE='A2',),),);

MO=AFFE_MODELE(MAILLAGE=MA,
               INFO=1,
               AFFE=(_F(GROUP_MA='DALLE',
                        PHENOMENE='MECANIQUE',
                        MODELISATION='DKT',),
                     _F(GROUP_MA='ACIER1L',
                        PHENOMENE='MECANIQUE',
                        MODELISATION='GRILLE_EXCENTRE',),
                     _F(GROUP_MA='ACIER1T',
                        PHENOMENE='MECANIQUE',
                        MODELISATION='GRILLE_EXCENTRE',),
                     _F(GROUP_MA='ACIER2L',
                        PHENOMENE='MECANIQUE',
                        MODELISATION='GRILLE_EXCENTRE',),
                     _F(GROUP_MA='ACIER2T',
                        PHENOMENE='MECANIQUE',
                        MODELISATION='GRILLE_EXCENTRE',),),);

MO_G=AFFE_MODELE(MAILLAGE=MA,
                 INFO=1,
                 AFFE=_F(GROUP_MA='DALLE_G',
                         PHENOMENE='MECANIQUE',
                         MODELISATION='DKTG',),);
E = 32308000000.0


BETON_E=DEFI_MATERIAU(ELAS=_F(E=E,
                              NU=0.2,
                              RHO=2500,),
                      BETON_ECRO_LINE=_F(D_SIGM_EPSI=(-0.2 * E),
                                         SYT=3.4E6,),);

ACIER=DEFI_MATERIAU(ELAS=_F(E=2.E11,
                            NU=0.2,
                            RHO=7800.0,
                            AMOR_ALPHA=3.7771128018011707E-05,
                            AMOR_BETA=2.6476993459625175,),
                    ECRO_LINE=_F(D_SIGM_EPSI=300.0E6,
                                 SY=570.0E6,),
                    INFO=1,);
EGM = 35700000000.0;


MAT_G=DEFI_MATERIAU(ELAS_GLRC=_F(E_M=EGM,
                                 NU_M=0.18,),
                    ECRO_LINE=_F(D_SIGM_EPSI=(EGM * 0.1),
                                 SY=4.5E6,),
                    GLRC_DM=_F(GAMMA_T=0.1,
                               GAMMA_F=0.1,
                               NYT=3.7E5,
                               MYF=5.0E3,),);

MATER=AFFE_MATERIAU(MAILLAGE=MA,
                    AFFE=(_F(GROUP_MA='DALLE_G',
                             MATER=MAT_G,),
                          _F(GROUP_MA='DALLE',
                             MATER=BETON_E,),
                          _F(GROUP_MA='ACIER1',
                             MATER=ACIER,),
                          _F(GROUP_MA='ACIER2',
                             MATER=ACIER,),
                          _F(GROUP_MA='ACIER1L',
                             MATER=ACIER,),
                          _F(GROUP_MA='ACIER1T',
                             MATER=ACIER,),
                          _F(GROUP_MA='ACIER2L',
                             MATER=ACIER,),
                          _F(GROUP_MA='ACIER2T',
                             MATER=ACIER,),),);

CAEL=AFFE_CARA_ELEM(MODELE=MO,
                    INFO=1,
                    COQUE=_F(GROUP_MA='DALLE',
                             EPAIS=EP,
                             ANGL_REP=(0.0,0.0,),
                             COQUE_NCOU=1,
                             INER_ROTA='OUI',
                             MODI_METRIQUE='NON',),
                    GRILLE=(_F(GROUP_MA='ACIER1L',
                               SECTION=8.0E-4,
                               ANGL_REP=(0,0,),
                               EXCENTREMENT=(-(EP) * 0.4),
                               COEF_RIGI_DRZ=1.E-10,),
                            _F(GROUP_MA='ACIER1T',
                               SECTION=8.0E-4,
                               ANGL_REP=(90,0,),
                               EXCENTREMENT=(-(EP) * 0.4),
                               COEF_RIGI_DRZ=1.E-10,),
                            _F(GROUP_MA='ACIER2L',
                               SECTION=8.0E-4,
                               ANGL_REP=(0,0,),
                               EXCENTREMENT=(EP * 0.4),
                               COEF_RIGI_DRZ=1.E-10,),
                            _F(GROUP_MA='ACIER2T',
                               SECTION=8.0E-4,
                               ANGL_REP=(90,0,),
                               EXCENTREMENT=(EP * 0.4),
                               COEF_RIGI_DRZ=1.E-10,),),);

CAEL_G=AFFE_CARA_ELEM(MODELE=MO_G,
                      COQUE=_F(GROUP_MA='DALLE_G',
                               EPAIS=EP,
                               ANGL_REP=(0.0,0.0,),
                               INER_ROTA='OUI',),);

COND_0=AFFE_CHAR_MECA(MODELE=MO,
                      DDL_IMPO=(_F(GROUP_NO='A1',
                                   DX=0.0,
                                   DY=0.0,
                                   DZ=0.0,
                                   DRX=0.0,
                                   DRY=0.0,
                                   DRZ=0.0,),
                                _F(GROUP_MA='A3A1',
                                   DX=0.0,
                                   DRY=0.0,),),);

COND_0G=AFFE_CHAR_MECA(MODELE=MO_G,
                       DDL_IMPO=(_F(GROUP_NO='A1',
                                    DX=0.0,
                                    DY=0.0,
                                    DZ=0.0,
                                    DRX=0.0,
                                    DRY=0.0,
                                    DRZ=0.0,),
                                 _F(GROUP_MA='A3A1',
                                    DX=0.0,
                                    DRY=0.0,),),);

COND_1=AFFE_CHAR_MECA(MODELE=MO,
                      DDL_IMPO=_F(GROUP_MA='A2A4',
                                  DX=DEP0,),);

COND_1G=AFFE_CHAR_MECA(MODELE=MO_G,
                       DDL_IMPO=_F(GROUP_MA='A2A4',
                                   DX=DEP0,),);

chf1=DEFI_FONCTION(NOM_PARA='INST',VALE=(0.,0.,
                         t1,1.,
                         t2,0.,
                         ),PROL_DROITE='LINEAIRE',PROL_GAUCHE='CONSTANT',);

inst1=DEFI_LIST_REEL(DEBUT=0.0,
                     INTERVALLE=(_F(JUSQU_A=0.9915,
                                    PAS=dt,),
                                 _F(JUSQU_A=t1,
                                    NOMBRE=1,),
                                 _F(JUSQU_A=1.9975,
                                    PAS=(5 * dt),),
                                 _F(JUSQU_A=tmax,
                                    NOMBRE=1,),),);

DEFLIST=DEFI_LIST_INST(DEFI_LIST=_F(METHODE='MANUEL',
                                    LIST_INST=inst1,),);

RESU1=STAT_NON_LINE(MODELE=MO,
                    CHAM_MATER=MATER,
                    CARA_ELEM=CAEL,
                    EXCIT=(_F(CHARGE=COND_0,
                              FONC_MULT=chf1,),
                           _F(CHARGE=COND_1,
                              FONC_MULT=chf1,),),
                    COMPORTEMENT=(_F(RELATION='ENDO_ISOT_BETON',
                                  ITER_CPLAN_MAXI=20,
                                  GROUP_MA='DALLE',),
                               _F(RELATION='GRILLE_ISOT_LINE',
                                  GROUP_MA=('ACIER1L','ACIER2L','ACIER1T','ACIER2T',),),),
                    INCREMENT=_F(LIST_INST=DEFLIST,
                                 PRECISION=0.001,),
                    NEWTON=_F(REAC_ITER=1,),
                    CONVERGENCE=_F(ITER_GLOB_MAXI=25,),);

RESU1=CALC_CHAMP(reuse =RESU1,RESULTAT=RESU1,PRECISION=1.E-3,
             FORCE=('FORC_NODA',),)

RESU_G=STAT_NON_LINE(MODELE=MO_G,
                     CHAM_MATER=MATER,
                     CARA_ELEM=CAEL_G,
                     EXCIT=(_F(CHARGE=COND_0G,
                               FONC_MULT=chf1,),
                            _F(CHARGE=COND_1G,
                               FONC_MULT=chf1,),),
                     COMPORTEMENT=_F(RELATION='KIT_DDI',
                                  RELATION_KIT=('GLRC_DM','VMIS_CINE_LINE',),
                                  ITER_CPLAN_MAXI=5,),
                     INCREMENT=_F(LIST_INST=DEFLIST,
                                  PRECISION=0.1,),
                     NEWTON=_F(REAC_ITER=2,),
                     CONVERGENCE=_F(ITER_GLOB_MAXI=25,),);

RESU_G=CALC_CHAMP(reuse =RESU_G,RESULTAT=RESU_G,PRECISION=1.E-3,
             FORCE=('FORC_NODA',),)

TDYA4=POST_RELEVE_T(ACTION=(_F(OPERATION='EXTRACTION',
                              INTITULE='A4DY',
                              RESULTAT=RESU1,
                              NOM_CHAM='DEPL',
                              GROUP_NO='A4',
                              NOM_CMP='DY',),
                              ),);

TDYA4=CALC_TABLE(reuse =TDYA4,
               TABLE=TDYA4,
               ACTION=(_F(
                          OPERATION = 'FILTRE',
                          NOM_PARA  = 'NUME_ORDRE',
                          CRIT_COMP = 'GT',
                          VALE    = 0,
                         ),),);

TDYA4_G=POST_RELEVE_T(ACTION=(_F(OPERATION='EXTRACTION',
                                INTITULE='A4DY',
                                RESULTAT=RESU_G,
                                NOM_CHAM='DEPL',
                                GROUP_NO='A4',
                                NOM_CMP='DY',),),);

TDYA4_G=CALC_TABLE(reuse =TDYA4_G,
               TABLE=TDYA4_G,
               ACTION=(_F(
                          OPERATION = 'FILTRE',
                          NOM_PARA  = 'NUME_ORDRE',
                          CRIT_COMP = 'GT',
                          VALE    = 0,
                         ),),);

TFXA4=POST_RELEVE_T(ACTION=(_F(OPERATION='EXTRACTION',
                              INTITULE='A4FX',
                              RESULTAT=RESU1,
                              NOM_CHAM='FORC_NODA',
                              GROUP_NO='A4',
                              NOM_CMP='DX',),
                            ),);


TFXA4=CALC_TABLE(reuse =TFXA4,
               TABLE=TFXA4,
               ACTION=(_F(
                          OPERATION = 'FILTRE',
                          NOM_PARA  = 'NUME_ORDRE',
                          CRIT_COMP = 'GT',
                          VALE    = 0,
                         ),),);

TFXA4_G=POST_RELEVE_T(ACTION=(_F(OPERATION='EXTRACTION',
                                INTITULE='A4FX',
                                RESULTAT=RESU_G,
                                NOM_CHAM='FORC_NODA',
                                GROUP_NO='A4',
                                NOM_CMP='DX',),
                              ),);

TFXA4_G=CALC_TABLE(reuse =TFXA4_G,
               TABLE=TFXA4_G,
               ACTION=(_F(
                          OPERATION = 'FILTRE',
                          NOM_PARA  = 'NUME_ORDRE',
                          CRIT_COMP = 'GT',
                          VALE    = 0,
                         ),),);

FORM_Y = FORMULE(VALE='(DY-DYG)/DY',
                 NOM_PARA=('DY','DYG',),);

FORM_X = FORMULE(VALE='(DX-DXG)/DX',
                 NOM_PARA=('DX','DXG',),);

TDYA4_G0=CALC_TABLE(TABLE=TDYA4_G,
                    ACTION=_F(OPERATION='EXTR',
                              NOM_PARA=('INST','DY',),),);

TFXA4_G0=CALC_TABLE(TABLE=TFXA4_G,
                    ACTION=_F(OPERATION='EXTR',
                              NOM_PARA=('INST','DX',),),);

TDYA4_G1=CALC_TABLE(TABLE=TDYA4_G0,
                    ACTION=_F(OPERATION='RENOMME',
                              NOM_PARA=('DY','DYG',),),);

TFXA4_G1=CALC_TABLE(TABLE=TFXA4_G0,
                    ACTION=_F(OPERATION='RENOMME',
                              NOM_PARA=('DX','DXG',),),);

TDYA4_G2=CALC_TABLE(TABLE=TDYA4,
                    ACTION=_F(OPERATION='COMB',
                              TABLE=TDYA4_G1,
                              NOM_PARA='INST',),);

TFXA4_G2=CALC_TABLE(TABLE=TFXA4,
                    ACTION=_F(OPERATION='COMB',
                              TABLE=TFXA4_G1,
                              NOM_PARA='INST',),);

DETRUIRE(CONCEPT=_F(NOM=TDYA4_G1,),);

DETRUIRE(CONCEPT=_F(NOM=TFXA4_G1,),);

D_DYA4=CALC_TABLE(TABLE=TDYA4_G2,
                  ACTION=_F(OPERATION='OPER',
                            FORMULE=FORM_Y,
                            NOM_PARA='DY_DYG',),);

D_FXA4=CALC_TABLE(TABLE=TFXA4_G2,
                  ACTION=_F(OPERATION='OPER',
                            FORMULE=FORM_X,
                            NOM_PARA='DX_DXG',),);

DETRUIRE(CONCEPT=_F(NOM=TDYA4_G2,),);

DETRUIRE(CONCEPT=_F(NOM=TFXA4_G2,),);

ttel = (2 * dt);

tten = (10 * dt);


# TRACTION - PHASE ELASTIQUE

TEST_TABLE(CRITERE='ABSOLU',
           REFERENCE='AUTRE_ASTER',
           PRECISION=0.02,
           VALE_CALC=0.014423672155512,
           VALE_REFE=0.0,
           NOM_PARA='DY_DYG',
           TABLE=D_DYA4,
           FILTRE=_F(NOM_PARA='INST',
                     VALE=0.017,),
           )

TEST_TABLE(CRITERE='ABSOLU',
           REFERENCE='AUTRE_ASTER',
           PRECISION=5.0E-3,
           VALE_CALC=-2.1084720357767E-03,
           VALE_REFE=0.0,
           NOM_PARA='DX_DXG',
           TABLE=D_FXA4,
           FILTRE=_F(NOM_PARA='INST',
                     VALE=0.017,),
           )

# TRACTION - PHASE ENDOMMAGEMENT

TEST_TABLE(
           VALE_CALC=-0.48471576760147,
           NOM_PARA='DY_DYG',
           TABLE=D_DYA4,
           FILTRE=_F(NOM_PARA='INST',
                     VALE=0.085,),
           )

TEST_TABLE(
           VALE_CALC=-0.34601409004145,
           NOM_PARA='DX_DXG',
           TABLE=D_FXA4,
           FILTRE=_F(NOM_PARA='INST',
                     VALE=0.085,),
           )

# TRACTION - PHASE PLASTICITE + ENDOMMAGEMENT

TEST_TABLE(CRITERE='ABSOLU',
           REFERENCE='AUTRE_ASTER',
           PRECISION=0.1,
           VALE_CALC=-0.069405040100320,
           VALE_REFE=0.0,
           NOM_PARA='DX_DXG',
           TABLE=D_FXA4,
           FILTRE=_F(NOM_PARA='INST',
                     VALE=1.0,),
           )

# DECHARGE

TEST_TABLE(CRITERE='RELATIF',
           VALE_CALC=-1.1104527525087E5,
           NOM_PARA='DX',
           TABLE=TFXA4_G0,
           FILTRE=_F(NOM_PARA='INST',
                     VALE=2.04,),
           )

#--------------------------------------------------------------------

RESU1_D=CALC_CHAMP(RESULTAT=RESU1,GROUP_MA='DALLE',VARI_INTERNE=('VARI_ELNO'),ENERGIE=('ENEL_ELGA','ENEL_ELNO'))


RESU1_A=CALC_CHAMP(RESULTAT=RESU1,GROUP_MA=('ACIER1L','ACIER2L','ACIER1T','ACIER2T'),CONTRAINTE=('SIEF_ELNO'))


RESU_G=CALC_CHAMP(reuse=RESU_G,RESULTAT=RESU_G,GROUP_MA='DALLE_G',CONTRAINTE=('SIEF_ELNO'),VARI_INTERNE=('VARI_ELNO'),DEFORMATION=('DEGE_ELNO'),ENERGIE=('ENEL_ELGA','ENEL_ELNO'))


TRAV_G=POST_ELEM(TRAV_EXT=_F(),
                 RESULTAT=RESU_G,);

ENER_G=POST_ELEM(ENER_ELAS=_F(GROUP_MA='DALLE_G',),
                 RESULTAT=RESU_G,);
ENEL_G = 4.642785;

ENEL_G2 = 55.69427;

ENEL_G3 = 815.1048;


TEST_RESU(RESU=(_F(INST=0.017,
                   REFERENCE='AUTRE_ASTER',
                   RESULTAT=RESU_G,
                   NOM_CHAM='ENEL_ELNO',
                   NOEUD='N2',
                   NOM_CMP='TOTALE',
                   VALE_CALC=4.642785000,
                   VALE_REFE=4.6427849999999999,
                   PRECISION=1.0E-05,
                   MAILLE='GM1',),
                _F(INST=0.017,
                   REFERENCE='AUTRE_ASTER',
                   RESULTAT=RESU_G,
                   NOM_CHAM='ENEL_ELNO',
                   NOEUD='N2',
                   NOM_CMP='MEMBRANE',
                   VALE_CALC=4.642785000,
                   VALE_REFE=4.6427849999999999,
                   PRECISION=1.0E-05,
                   MAILLE='GM1',),
                _F(INST=0.017,
                   REFERENCE='AUTRE_ASTER',
                   POINT=2,
                   RESULTAT=RESU_G,
                   NOM_CHAM='ENEL_ELGA',
                   NOM_CMP='TOTALE',
                   VALE_CALC=4.642785000,
                   VALE_REFE=4.6427849999999999,
                   PRECISION=1.0E-05,
                   MAILLE='GM1',),
                _F(INST=0.017,
                   REFERENCE='ANALYTIQUE',
                   POINT=2,
                   RESULTAT=RESU_G,
                   NOM_CHAM='ENEL_ELGA',
                   NOM_CMP='FLEXION',
                   VALE_CALC= 0.0E+00,
                   VALE_REFE=0.0,
                   CRITERE='ABSOLU',
                   PRECISION=1.E-13,
                   MAILLE='GM1',),
                _F(INST=0.085,
                   REFERENCE='AUTRE_ASTER',
                   RESULTAT=RESU_G,
                   NOM_CHAM='ENEL_ELNO',
                   NOEUD='N2',
                   NOM_CMP='TOTALE',
                   VALE_CALC=54.880813316745,
                   VALE_REFE=55.694270000000003,
                   PRECISION=0.15,
                   MAILLE='GM1',),
                _F(INST=0.085,
                   REFERENCE='AUTRE_ASTER',
                   POINT=2,
                   RESULTAT=RESU_G,
                   NOM_CHAM='ENEL_ELGA',
                   NOM_CMP='TOTALE',
                   VALE_CALC=54.880813316745,
                   VALE_REFE=55.694270000000003,
                   PRECISION=0.15,
                   MAILLE='GM1',),
                _F(INST=0.085,
                   REFERENCE='ANALYTIQUE',
                   POINT=2,
                   RESULTAT=RESU_G,
                   NOM_CHAM='ENEL_ELGA',
                   NOM_CMP='FLEXION',
                   VALE_CALC= 0.0E+00,
                   VALE_REFE=0.0,
                   CRITERE='ABSOLU',
                   PRECISION=1.E-13,
                   MAILLE='GM1',),
                _F(INST=1.0,
                   REFERENCE='ANALYTIQUE',
                   POINT=2,
                   RESULTAT=RESU_G,
                   NOM_CHAM='ENEL_ELGA',
                   NOM_CMP='FLEXION',
                   VALE_CALC= 0.0E+00,
                   VALE_REFE=0.0,
                   CRITERE='ABSOLU',
                   PRECISION=1.E-13,
                   MAILLE='GM1',),
                ),
          )

TEST_TABLE(REFERENCE='AUTRE_ASTER',
           PRECISION=1.0E-05,
           VALE_CALC=4.642785,
           VALE_REFE=4.642785,
           NOM_PARA='TOTALE',
           TABLE=ENER_G,
           FILTRE=_F(NOM_PARA='INST',
                     VALE=0.017,),
           )

TEST_TABLE(REFERENCE='AUTRE_ASTER',
           PRECISION=1.0E-05,
           VALE_CALC=4.642785,
           VALE_REFE=4.642785,
           NOM_PARA='TRAV_ELAS',
           TABLE=TRAV_G,
           FILTRE=_F(NOM_PARA='INST',
                     VALE=0.017,),
           )

TEST_TABLE(REFERENCE='AUTRE_ASTER',
           VALE_CALC=54.880813316745,
           VALE_REFE=55.69427,
           PRECISION=2.E-2,
           NOM_PARA='TOTALE',
           TABLE=ENER_G,
           FILTRE=_F(NOM_PARA='INST',
                     VALE=0.085,),
           )

TEST_TABLE(REFERENCE='AUTRE_ASTER',
           VALE_CALC=54.880813316745,
           VALE_REFE=55.69427,
           PRECISION=2.E-2,
           NOM_PARA='TRAV_ELAS',
           TABLE=TRAV_G,
           FILTRE=_F(NOM_PARA='INST',
                     VALE=0.085,),
           )

TEST_TABLE(REFERENCE='AUTRE_ASTER',
           VALE_CALC=817.12643913305,
           VALE_REFE=815.1048,
           PRECISION=3.E-2,
           NOM_PARA='TOTALE',
           TABLE=ENER_G,
           FILTRE=_F(NOM_PARA='INST',
                     VALE=1.0,),
           )

FIN();
