# TITRE POUTRE CONSOLE SOUMISE A UN EFFORT TRANCHANT
# ======================================================================
# COPYRIGHT (C) 1991 - 2015  EDF R&D                  WWW.CODE-ASTER.ORG
# THIS PROGRAM IS FREE SOFTWARE; YOU CAN REDISTRIBUTE IT AND/OR MODIFY
# IT UNDER THE TERMS OF THE GNU GENERAL PUBLIC LICENSE AS PUBLISHED BY
# THE FREE SOFTWARE FOUNDATION; EITHER VERSION 2 OF THE LICENSE, OR
# (AT YOUR OPTION) ANY LATER VERSION.
#
# THIS PROGRAM IS DISTRIBUTED IN THE HOPE THAT IT WILL BE USEFUL, BUT
# WITHOUT ANY WARRANTY; WITHOUT EVEN THE IMPLIED WARRANTY OF
# MERCHANTABILITY OR FITNESS FOR A PARTICULAR PURPOSE. SEE THE GNU
# GENERAL PUBLIC LICENSE FOR MORE DETAILS.
#
# YOU SHOULD HAVE RECEIVED A COPY OF THE GNU GENERAL PUBLIC LICENSE
# ALONG WITH THIS PROGRAM; IF NOT, WRITE TO EDF R&D CODE_ASTER,
#    1 AVENUE DU GENERAL DE GAULLE, 92141 CLAMART CEDEX, FRANCE.
# ======================================================================
# ELEMENT SHB15 - V.D TRINH 2009

#
DEBUT(CODE=_F(
              NIV_PUB_WEB='INTERNET',
VISU_EFICAS='OUI',),DEBUG=_F(SDVERI='OUI'))

MAIL=LIRE_MAILLAGE(FORMAT='MED',);

MAIL=MODI_MAILLAGE(reuse =MAIL,
                   MAILLAGE=MAIL,
                   ORIE_SHB=_F(GROUP_MA='VOL2',),);

MODMECA=AFFE_MODELE(MAILLAGE=MAIL,
                    AFFE=_F(TOUT='OUI',
                            PHENOMENE='MECANIQUE',
                            MODELISATION='SHB',),);

MAT=DEFI_MATERIAU(ELAS=_F(E=1.2E+6,
                          NU=0.,),);

CHM=AFFE_MATERIAU(MAILLAGE=MAIL,
                  AFFE=_F(TOUT='OUI',
                          MATER=MAT,),);

CHARGT=AFFE_CHAR_MECA(MODELE=MODMECA,
                      DDL_IMPO=_F(GROUP_MA='SS3',
                                  DX=0.0,
                                  DY=0.0,
                                  DZ=0.0,),
                      FORCE_NODALE=_F(GROUP_NO=('P2','P3','P6','P7',),
                                      FZ=1.,),);

LISTPILO=DEFI_LIST_REEL(DEBUT=0.0,
                        INTERVALLE=_F(JUSQU_A=6.7,
                                      NOMBRE=67,),);

NONLIN=STAT_NON_LINE(MODELE=MODMECA,
                     CHAM_MATER=CHM,
                     EXCIT=_F(CHARGE=CHARGT,
                              TYPE_CHARGE='FIXE_PILO',),
                     COMPORTEMENT=_F(RELATION='ELAS',
                                  DEFORMATION='GROT_GDEP',
                                  TOUT='OUI',),
                     INCREMENT=_F(LIST_INST=LISTPILO,),
                     NEWTON=_F(MATRICE='TANGENTE',),
                     PILOTAGE=_F(TYPE='DDL_IMPO',
                                 COEF_MULT=1.0,
                                 GROUP_NO='P2',
                                 NOM_CMP='DZ',),
                     CONVERGENCE=_F(RESI_GLOB_RELA=0.0000001,
                                    ITER_GLOB_MAXI=50,),);

TABDZ=POST_RELEVE_T(ACTION=_F(INTITULE='F',
                              GROUP_NO='P2',
                              RESULTAT=NONLIN,
                              NOM_CHAM='DEPL',
                              TOUT_ORDRE='OUI',
                              NOM_CMP='DZ',
                              OPERATION='EXTRACTION',),);

FDZ=RECU_FONCTION(TABLE=TABDZ,
                  PARA_X='INST',
                  PARA_Y='DZ',);

FETA=RECU_FONCTION(RESULTAT=NONLIN,
                   NOM_PARA_RESU='ETA_PILOTAGE',
                   INTERPOL='LIN',
                   PROL_GAUCHE='CONSTANT',);

IMPR_FONCTION(UNITE=8,
            FORMAT='TABLEAU',
            COURBE=(_F(FONCTION=FDZ,),
                    _F(FONCTION=FETA,),),);

# solution de reference de SZE K.Y et al.

REFEZ=DEFI_FONCTION(NOM_PARA='INST',VALE=(0.,0.,
                          0.663,0.05,
                          1.309,0.1,
                          1.922,0.15,
                          2.493,0.2,
                          3.015,0.25,
                          3.488,0.3,
                          3.912,0.35,
                          4.292,0.4,
                          4.631,0.45,
                          4.933,0.5,
                          5.202,0.55,
                          5.444,0.6,
                          5.660,0.65,
                          5.885,0.7,
                          6.031,0.75,
                          6.190,0.8,
                          6.335,0.85,
                          6.467,0.9,
                          6.588,0.95,
                          6.698,1.,
                          ),INTERPOL='LIN',PROL_DROITE='CONSTANT',PROL_GAUCHE='CONSTANT',);


IMPR_FONCTION(UNITE=8,
            FORMAT='TABLEAU',
            COURBE=(_F(FONCTION=REFEZ,),
                    _F(FONCTION=FETA,),),);

DIFFZ=CALC_FONCTION(COMB=(
                          _F(  FONCTION = FETA, COEF =  1.),
                          _F(  FONCTION = REFEZ, COEF = -1.),
                          ) )

IMPR_FONCTION(UNITE=8,
            FORMAT='TABLEAU',
            COURBE=(_F(FONCTION=DIFFZ,),),);

MAXREFEZ=INFO_FONCTION( MAX=_F(  FONCTION = REFEZ)    )

IMPR_TABLE(TABLE=MAXREFEZ)


# COMPARAISON A LA SOLUTION DE REFERENCE

TEST_FONCTION(VALEUR=(_F(VALE_CALC=-5.97935789559e-05,
                         VALE_REFE=0.0,
                         CRITERE='ABSOLU',
                         VALE_PARA=0.66300000000000003,
                         REFERENCE='SOURCE_EXTERNE',
                         PRECISION=1.0,
                         FONCTION=DIFFZ,),
                      _F(VALE_CALC=-9.53836484904e-05,
                         VALE_REFE=0.0,
                         CRITERE='ABSOLU',
                         VALE_PARA=1.3089999999999999,
                         REFERENCE='SOURCE_EXTERNE',
                         PRECISION=1.0,
                         FONCTION=DIFFZ,),
                      _F(VALE_CALC=-0.00016875971596,
                         VALE_REFE=0.0,
                         CRITERE='ABSOLU',
                         VALE_PARA=1.9219999999999999,
                         REFERENCE='SOURCE_EXTERNE',
                         PRECISION=1.0,
                         FONCTION=DIFFZ,),
                      _F(VALE_CALC=-0.000170017671111,
                         VALE_REFE=0.0,
                         CRITERE='ABSOLU',
                         VALE_PARA=2.4929999999999999,
                         REFERENCE='SOURCE_EXTERNE',
                         PRECISION=1.0,
                         FONCTION=DIFFZ,),
                      _F(VALE_CALC=-0.0001927993909,
                         VALE_REFE=0.0,
                         CRITERE='ABSOLU',
                         VALE_PARA=3.0150000000000001,
                         REFERENCE='SOURCE_EXTERNE',
                         PRECISION=1.0,
                         FONCTION=DIFFZ,),
                      _F(VALE_CALC=-0.000110248304531,
                         VALE_REFE=0.0,
                         CRITERE='ABSOLU',
                         VALE_PARA=3.488,
                         REFERENCE='SOURCE_EXTERNE',
                         PRECISION=1.0,
                         FONCTION=DIFFZ,),
                      _F(VALE_CALC=-6.53463324904e-05,
                         VALE_REFE=0.0,
                         CRITERE='ABSOLU',
                         VALE_PARA=3.9119999999999999,
                         REFERENCE='SOURCE_EXTERNE',
                         PRECISION=1.0,
                         FONCTION=DIFFZ,),
                      _F(VALE_CALC=0.000144306065585,
                         VALE_REFE=0.0,
                         CRITERE='ABSOLU',
                         VALE_PARA=4.2919999999999998,
                         REFERENCE='SOURCE_EXTERNE',
                         PRECISION=1.0,
                         FONCTION=DIFFZ,),
                      _F(VALE_CALC=0.000445677784632,
                         VALE_REFE=0.0,
                         CRITERE='ABSOLU',
                         VALE_PARA=4.6310000000000002,
                         REFERENCE='SOURCE_EXTERNE',
                         PRECISION=1.0,
                         FONCTION=DIFFZ,),
                      _F(VALE_CALC=0.000692923277507,
                         VALE_REFE=0.0,
                         CRITERE='ABSOLU',
                         VALE_PARA=4.9329999999999998,
                         REFERENCE='SOURCE_EXTERNE',
                         PRECISION=1.0,
                         FONCTION=DIFFZ,),
                      _F(VALE_CALC=0.000745785113774,
                         VALE_REFE=0.0,
                         CRITERE='ABSOLU',
                         VALE_PARA=5.202,
                         REFERENCE='SOURCE_EXTERNE',
                         PRECISION=1.0,
                         FONCTION=DIFFZ,),
                      _F(VALE_CALC=0.00128198068107,
                         VALE_REFE=0.0,
                         CRITERE='ABSOLU',
                         VALE_PARA=5.444,
                         REFERENCE='SOURCE_EXTERNE',
                         PRECISION=1.0,
                         FONCTION=DIFFZ,),
                      _F(VALE_CALC=0.00147945757139,
                         VALE_REFE=0.0,
                         CRITERE='ABSOLU',
                         VALE_PARA=5.6600000000000001,
                         REFERENCE='SOURCE_EXTERNE',
                         PRECISION=1.0,
                         FONCTION=DIFFZ,),
                      _F(VALE_CALC=0.0100074891754,
                         VALE_REFE=0.0,
                         CRITERE='ABSOLU',
                         VALE_PARA=5.8849999999999998,
                         REFERENCE='SOURCE_EXTERNE',
                         PRECISION=1.0,
                         FONCTION=DIFFZ,),
                      _F(VALE_CALC=0.00223206294834,
                         VALE_REFE=0.0,
                         CRITERE='ABSOLU',
                         VALE_PARA=6.0309999999999997,
                         REFERENCE='SOURCE_EXTERNE',
                         PRECISION=1.0,
                         FONCTION=DIFFZ,),
                      _F(VALE_CALC=0.00237012595435,
                         VALE_REFE=0.0,
                         CRITERE='ABSOLU',
                         VALE_PARA=6.1900000000000004,
                         REFERENCE='SOURCE_EXTERNE',
                         PRECISION=1.0,
                         FONCTION=DIFFZ,),
                      _F(VALE_CALC=0.00298795079503,
                         VALE_REFE=0.0,
                         CRITERE='ABSOLU',
                         VALE_PARA=6.335,
                         REFERENCE='SOURCE_EXTERNE',
                         PRECISION=1.0,
                         FONCTION=DIFFZ,),
                      _F(VALE_CALC=0.00338366511038,
                         VALE_REFE=0.0,
                         CRITERE='ABSOLU',
                         VALE_PARA=6.4669999999999996,
                         REFERENCE='SOURCE_EXTERNE',
                         PRECISION=1.0,
                         FONCTION=DIFFZ,),
                      _F(VALE_CALC=0.00373757759197,
                         VALE_REFE=0.0,
                         CRITERE='ABSOLU',
                         VALE_PARA=6.5880000000000001,
                         REFERENCE='SOURCE_EXTERNE',
                         PRECISION=1.0,
                         FONCTION=DIFFZ,),
                      _F(VALE_CALC=0.00364083267478,
                         VALE_REFE=0.0,
                         CRITERE='ABSOLU',
                         VALE_PARA=6.6980000000000004,
                         REFERENCE='SOURCE_EXTERNE',
                         PRECISION=1.0,
                         FONCTION=DIFFZ,),
                      ),
              )

# RECHERCHE DE LA VALEUR MAXIMUM DE LA VALEUR ABSOLUE DE LA FONCTION DE REFERENCE

ABSREFEZ = CALC_FONCTION( ABS=_F(  FONCTION = REFEZ)    )
MXREFEZ  = INFO_FONCTION( MAX=_F(  FONCTION = ABSREFEZ)    )
IMPR_TABLE(TABLE=MXREFEZ)

# RECHERCHE DE LA VALEUR MAXIMUM DE LA VALEUR ABSOLUE DE LA DIFFERENCE
# ENTRE LA FONCTION REFEX ET LA FONCTION FETA (RESULTATS ASTER)

ABSDIFFZ  = CALC_FONCTION( ABS=_F(  FONCTION = DIFFZ)    )
MXDIFFZ   = INFO_FONCTION( MAX=_F(  FONCTION = ABSDIFFZ)    )
IMPR_TABLE(TABLE=MXDIFFZ)



TEST_TABLE(
           VALE_CALC=0.010007489,
           NOM_PARA='ETA_PILO',
           TABLE=MXDIFFZ,
           FILTRE=(_F(NOM_PARA='FONCTION',
                      VALE_K='ABSDIFFZ',),
                   _F(NOM_PARA='TYPE',
                      VALE_K='MAXI',),
                   ),
           )

TABDX=POST_RELEVE_T(ACTION=_F(INTITULE='F',
                              GROUP_NO='P2',
                              RESULTAT=NONLIN,
                              NOM_CHAM='DEPL',
                              TOUT_ORDRE='OUI',
                              NOM_CMP='DX',
                              OPERATION='EXTRACTION',),);

FDX1=RECU_FONCTION(TABLE=TABDX,
                  PARA_X='INST',
                  PARA_Y='DX',);

FDX=CALC_FONCTION(COMB=_F(FONCTION=FDX1,
                          COEF=-1.,),);

IMPR_FONCTION(UNITE=8,
            FORMAT='TABLEAU',
            COURBE=(_F(FONCTION=FDX,),
                    _F(FONCTION=FETA,),),);

# solution de reference de SZE K.Y et al.

REFEX=DEFI_FONCTION(NOM_PARA='INST',VALE=(0.,0.,
                          0.026,0.05,
                          0.103,0.1,
                          0.224,0.15,
                          0.381,0.2,
                          0.563,0.25,
                          0.763,0.3,
                          0.971,0.35,
                          1.184,0.4,
                          1.396,0.45,
                          1.604,0.5,
                          1.807,0.55,
                          2.002,0.6,
                          2.190,0.65,
                          2.370,0.7,
                          2.541,0.75,
                          2.705,0.8,
                          2.861,0.85,
                          3.010,0.9,
                          3.151,0.95,
                          3.286,1.,
                          ),INTERPOL='LIN',PROL_DROITE='CONSTANT',PROL_GAUCHE='CONSTANT',);

DIFFX=CALC_FONCTION(COMB=(
                          _F(  FONCTION = FETA, COEF =  1.),
                          _F(  FONCTION = REFEX, COEF = -1.),
                          ) )

IMPR_FONCTION(UNITE=8,
            FORMAT='TABLEAU',
            COURBE=(_F(FONCTION=DIFFX,),),);

MAXREFEX=INFO_FONCTION( MAX=_F(  FONCTION = REFEX)    )

IMPR_TABLE(TABLE=MAXREFEX)


# COMPARAISON A LA SOLUTION DE REFERENCE

TEST_FONCTION(VALEUR=(_F(VALE_CALC=-0.0480499417119,
                         VALE_REFE=0.0,
                         CRITERE='ABSOLU',
                         VALE_PARA=0.025999999999999999,
                         REFERENCE='SOURCE_EXTERNE',
                         PRECISION=1.0,
                         FONCTION=DIFFX,),
                      _F(VALE_CALC=-0.0922746513014,
                         VALE_REFE=0.0,
                         CRITERE='ABSOLU',
                         VALE_PARA=0.10299999999999999,
                         REFERENCE='SOURCE_EXTERNE',
                         PRECISION=1.0,
                         FONCTION=DIFFX,),
                      _F(VALE_CALC=-0.13319255202,
                         VALE_REFE=0.0,
                         CRITERE='ABSOLU',
                         VALE_PARA=0.224,
                         REFERENCE='SOURCE_EXTERNE',
                         PRECISION=1.0,
                         FONCTION=DIFFX,),
                      _F(VALE_CALC=-0.171386590134,
                         VALE_REFE=0.0,
                         CRITERE='ABSOLU',
                         VALE_PARA=0.38100000000000001,
                         REFERENCE='SOURCE_EXTERNE',
                         PRECISION=1.0,
                         FONCTION=DIFFX,),
                      _F(VALE_CALC=-0.207644756763,
                         VALE_REFE=0.0,
                         CRITERE='ABSOLU',
                         VALE_PARA=0.56299999999999994,
                         REFERENCE='SOURCE_EXTERNE',
                         PRECISION=1.0,
                         FONCTION=DIFFX,),
                      _F(VALE_CALC=-0.24244383607,
                         VALE_REFE=0.0,
                         CRITERE='ABSOLU',
                         VALE_PARA=0.76300000000000001,
                         REFERENCE='SOURCE_EXTERNE',
                         PRECISION=1.0,
                         FONCTION=DIFFX,),
                      _F(VALE_CALC=-0.276482177435,
                         VALE_REFE=0.0,
                         CRITERE='ABSOLU',
                         VALE_PARA=0.97099999999999997,
                         REFERENCE='SOURCE_EXTERNE',
                         PRECISION=1.0,
                         FONCTION=DIFFX,),
                      _F(VALE_CALC=-0.309928663063,
                         VALE_REFE=0.0,
                         CRITERE='ABSOLU',
                         VALE_PARA=1.1839999999999999,
                         REFERENCE='SOURCE_EXTERNE',
                         PRECISION=1.0,
                         FONCTION=DIFFX,),
                      _F(VALE_CALC=-0.343192724026,
                         VALE_REFE=0.0,
                         CRITERE='ABSOLU',
                         VALE_PARA=1.3959999999999999,
                         REFERENCE='SOURCE_EXTERNE',
                         PRECISION=1.0,
                         FONCTION=DIFFX,),
                      _F(VALE_CALC=-0.376463673408,
                         VALE_REFE=0.0,
                         CRITERE='ABSOLU',
                         VALE_PARA=1.6040000000000001,
                         REFERENCE='SOURCE_EXTERNE',
                         PRECISION=1.0,
                         FONCTION=DIFFX,),
                      _F(VALE_CALC=-0.409790741798,
                         VALE_REFE=0.0,
                         CRITERE='ABSOLU',
                         VALE_PARA=1.8069999999999999,
                         REFERENCE='SOURCE_EXTERNE',
                         PRECISION=1.0,
                         FONCTION=DIFFX,),
                      _F(VALE_CALC=-0.443406859818,
                         VALE_REFE=0.0,
                         CRITERE='ABSOLU',
                         VALE_PARA=2.0019999999999998,
                         REFERENCE='SOURCE_EXTERNE',
                         PRECISION=1.0,
                         FONCTION=DIFFX,),
                      _F(VALE_CALC=-0.477210705024,
                         VALE_REFE=0.0,
                         CRITERE='ABSOLU',
                         VALE_PARA=2.1899999999999999,
                         REFERENCE='SOURCE_EXTERNE',
                         PRECISION=1.0,
                         FONCTION=DIFFX,),
                      _F(VALE_CALC=-0.511289328996,
                         VALE_REFE=0.0,
                         CRITERE='ABSOLU',
                         VALE_PARA=2.3700000000000001,
                         REFERENCE='SOURCE_EXTERNE',
                         PRECISION=1.0,
                         FONCTION=DIFFX,),
                      _F(VALE_CALC=-0.545752631616,
                         VALE_REFE=0.0,
                         CRITERE='ABSOLU',
                         VALE_PARA=2.5409999999999999,
                         REFERENCE='SOURCE_EXTERNE',
                         PRECISION=1.0,
                         FONCTION=DIFFX,),
                      _F(VALE_CALC=-0.580447827954,
                         VALE_REFE=0.0,
                         CRITERE='ABSOLU',
                         VALE_PARA=2.7050000000000001,
                         REFERENCE='SOURCE_EXTERNE',
                         PRECISION=1.0,
                         FONCTION=DIFFX,),
                      _F(VALE_CALC=-0.615433636362,
                         VALE_REFE=0.0,
                         CRITERE='ABSOLU',
                         VALE_PARA=2.8610000000000002,
                         REFERENCE='SOURCE_EXTERNE',
                         PRECISION=1.0,
                         FONCTION=DIFFX,),
                      _F(VALE_CALC=-0.650699208065,
                         VALE_REFE=0.0,
                         CRITERE='ABSOLU',
                         VALE_PARA=3.0099999999999998,
                         REFERENCE='SOURCE_EXTERNE',
                         PRECISION=1.0,
                         FONCTION=DIFFX,),
                      _F(VALE_CALC=-0.686308672678,
                         VALE_REFE=0.0,
                         CRITERE='ABSOLU',
                         VALE_PARA=3.1509999999999998,
                         REFERENCE='SOURCE_EXTERNE',
                         PRECISION=1.0,
                         FONCTION=DIFFX,),
                      _F(VALE_CALC=-0.722148430279,
                         VALE_REFE=0.0,
                         CRITERE='ABSOLU',
                         VALE_PARA=3.286,
                         REFERENCE='SOURCE_EXTERNE',
                         PRECISION=1.0,
                         FONCTION=DIFFX,),
                      ),
              )

# RECHERCHE DE LA VALEUR MAXIMUM DE LA VALEUR ABSOLUE DE LA FONCTION DE REFERENCE

ABSREFEX = CALC_FONCTION( ABS=_F(  FONCTION = REFEX)    )
MXREFEX  = INFO_FONCTION( MAX=_F(  FONCTION = ABSREFEX)    )
IMPR_TABLE(TABLE=MXREFEX)

# RECHERCHE DE LA VALEUR MAXIMUM DE LA VALEUR ABSOLUE DE LA DIFFERENCE
# ENTRE LA FONCTION REFEX ET LA FONCTION FETA (RESULTATS ASTER)

ABSDIFFX  = CALC_FONCTION( ABS=_F(  FONCTION = DIFFX)    )
MXDIFFX   = INFO_FONCTION( MAX=_F(  FONCTION = ABSDIFFX)    )
IMPR_TABLE(TABLE=MXDIFFX)


TEST_TABLE(
           VALE_CALC=0.722148430,
           NOM_PARA='ETA_PILO',
           TABLE=MXDIFFX,
           FILTRE=(_F(NOM_PARA='FONCTION',
                      VALE_K='ABSDIFFX',),
                   _F(NOM_PARA='TYPE',
                      VALE_K='MAXI',),
                   ),
           )

# ON TRACE LES COURBES RESULTATS ASTER

IMPR_FONCTION(FORMAT='XMGRACE',
              PILOTE='',   #'INTERACTIF',
              COURBE=(_F(FONC_X=FDZ,FONC_Y=FETA,
                         LEGENDE='ASTER_DZ',),
                      _F(FONCTION=REFEZ,
                         LEGENDE='REFERENCE_DZ',),
                      _F(FONC_X=FDX,FONC_Y=FETA,
                         LEGENDE='ASTER_DX',),
                      _F(FONCTION=REFEX,
                         LEGENDE='REFERENCE_DX',),
                       ),
              BORNE_X=(0.0,8.0,),
              BORNE_Y=(0.0,1.0,),
              GRILLE_X=0.5,
              GRILLE_Y=0.05,
              LEGENDE_X='Instant',
              LEGENDE_Y='P/Pmax',);



FIN();
