# MODIF  DATE 13/12/2011   AUTEUR GENIAUT S.GENIAUT 
# TITRE COMPORTEMENT NON LINEAIRE D'UNE NAPPE D'ARMATURES SELON X  SOUS CHARGEMENT THERMIQUE. GRILLE_PINTO_MEN
#            CONFIGURATION MANAGEMENT OF EDF VERSION
# ======================================================================
# COPYRIGHT (C) 1991 - 2011  EDF R&D                  WWW.CODE-ASTER.ORG
# THIS PROGRAM IS FREE SOFTWARE; YOU CAN REDISTRIBUTE IT AND/OR MODIFY
# IT UNDER THE TERMS OF THE GNU GENERAL PUBLIC LICENSE AS PUBLISHED BY
# THE FREE SOFTWARE FOUNDATION; EITHER VERSION 2 OF THE LICENSE, OR
# (AT YOUR OPTION) ANY LATER VERSION.
#
# THIS PROGRAM IS DISTRIBUTED IN THE HOPE THAT IT WILL BE USEFUL, BUT
# WITHOUT ANY WARRANTY; WITHOUT EVEN THE IMPLIED WARRANTY OF
# MERCHANTABILITY OR FITNESS FOR A PARTICULAR PURPOSE. SEE THE GNU
# GENERAL PUBLIC LICENSE FOR MORE DETAILS.
#
# YOU SHOULD HAVE RECEIVED A COPY OF THE GNU GENERAL PUBLIC LICENSE
# ALONG WITH THIS PROGRAM; IF NOT, WRITE TO EDF R&D CODE_ASTER,
#    1 AVENUE DU GENERAL DE GAULLE, 92141 CLAMART CEDEX, FRANCE.
# ======================================================================
#      D'ARMATURES

DEBUT(CODE=_F(NOM='SSNS100H',NIV_PUB_WEB='INTERNET'),DEBUG=_F(SDVERI='OUI'))

#-----------------------------------------------------------------------
# VALIDATION DU MODELE GRILLE_PINTO_MEN EN PLASTICITE
# TEMPERATRE IMPOSEE PAR NAPPE PAS ARAMATURE Y
#-----------------------------------------------------------------------

MAIL=LIRE_MAILLAGE(   )

#
# -----------------------------------------------------
# DEFINITION DES MATERIAUX
# -----------------------------------------------------
#

ACIER=DEFI_MATERIAU(   ELAS=_F(  E = 2.E11,
                                    NU = 0.3,
                                    ALPHA = 1.E-5,         ),
                  PINTO_MENEGOTTO=_F(  SY = 2.E8,
                                    EPSI_ULTM = 3.E-2,
                                    SIGM_ULTM = 2.58E8,
                                    EPSP_HARD = 0.0023,
                                    R_PM = 20.0,
                                    EP_SUR_E = 0.01,
                                    A1_PM = 18.5,
                                    A2_PM = 0.15,
                                    ELAN = 4.9,
                                    A6_PM = 620.0,
                                    C_PM = 0.5,
                                    A_PM = 0.008,          )
                           )

#
# -------------------------------------------------
# AFFECTATION DES MATERIAUX
# -------------------------------------------------
#
CHMAT=AFFE_MATERIAU(    MAILLAGE=MAIL,
                          AFFE=_F(  GROUP_MA = 'GEOB',
                                 MATER = ACIER,
                                 
                               )
                      )

#
# -------------------------------------------------
# AFFECTATION DES MODELES
# -------------------------------------------------
#
MOD=AFFE_MODELE(    MAILLAGE=MAIL,     VERIF='MAILLE',
                         AFFE=_F(  GROUP_MA = 'GEOB',
#                      AFFE : ( TOUT :  'OUI'
                               PHENOMENE = 'MECANIQUE',
                               MODELISATION = 'GRILLE_EXCENTRE',
                             )
                      )

# -------------------------------------------------
# AFFECTATION DES CARACTERISTIQUES
# -------------------------------------------------
#
CARGR=AFFE_CARA_ELEM(    MODELE=MOD,
                       GRILLE=_F( GROUP_MA = 'GEOB',
                                SECTION = .01,
                                ANGL_REP = (0.0, 0.0,),
                                EXCENTREMENT = 0.0,
#                                COEF_RIGI_DRZ : 0.00001
                              )
                        )

# ----------------------------------------------
# CONDITIONS AUX LIMITES
# ----------------------------------------------
#
CL=AFFE_CHAR_MECA(
                 MODELE=MOD,DDL_IMPO=(
               _F(  NOEUD = 'NO1',
                          DX = 0.,
                          DY = 0.,
                          DZ = 0.,
                          DRX = 0.,
                          DRY = 0.,
                          DRZ = 0.,
                        ),
               _F(  NOEUD = 'NO2',
#                          DX  : 0.
                          DY = 0.,
                          DZ = 0.,
                          DRX = 0.,
                          DRY = 0.,
                          DRZ = 0.,
                        ),
               _F(  NOEUD = 'NO3',
#                          DX  : 0.
                          DY = 0.,
                          DZ = 0.,
                          DRX = 0.,
                          DRY = 0.,
                          DRZ = 0.,
                        ),
               _F(  NOEUD = 'NO4',
                          DX = 0.,
                          DY = 0.,
                          DZ = 0.,
                          DRX = 0.,
                          DRY = 0.,
                          DRZ = 0.,
                        ))
                     )

# ----------------------------------------------
# CHARGEMENT NO 1
# ----------------------------------------------
#
CH1=AFFE_CHAR_MECA(
                     MODELE=MOD,
               FORCE_NODALE=_F(  NOEUD = ( 'NO2', 'NO3', ),
                              FX = 1.,
                            )
                      )

#
# ----------------------------------------------
# CALCUL
# ----------------------------------------------
#

LINST1=DEFI_LIST_REEL(   DEBUT=0.,INTERVALLE=(

                                _F(  JUSQU_A = 0.001,   NOMBRE = 1,   ),
                                _F(  JUSQU_A = 0.0023,  NOMBRE = 1,   ),
                                _F(  JUSQU_A = 0.03,    NOMBRE = 1,   ),
                                _F(  JUSQU_A = 0.2,     NOMBRE = 1,   ),
                                _F(  JUSQU_A = 0.4,     NOMBRE = 1,   ),
                                _F(  JUSQU_A = 6.4,     NOMBRE = 1,   ),
                                _F(  JUSQU_A = 7.92,    NOMBRE = 1,   ),
                                _F(  JUSQU_A = 17.,     NOMBRE = 1,   ),
                                _F(  JUSQU_A = 19.,     NOMBRE = 1,   ),
                                _F(  JUSQU_A = 20.,     NOMBRE = 1,   ),
                                _F(  JUSQU_A = 21.,     NOMBRE = 1,   ),
                                _F(  JUSQU_A = 22.,     NOMBRE = 1,   ),
                                _F(  JUSQU_A = 25.,     NOMBRE = 1,   ),
                                _F(  JUSQU_A = 50.,     NOMBRE = 1,   ))
                         )

#
# COEF_MULT = INSTANT/DEPLACEMENT
#

LEDEP=STAT_NON_LINE(
                            MODELE=MOD,
                        CHAM_MATER=CHMAT,
                         CARA_ELEM=CARGR,EXCIT=(
                             _F(
                CHARGE = CL,
                ),
                             _F(
                CHARGE = CH1,
                TYPE_CHARGE = 'FIXE_PILO',
                )),
                         COMP_INCR=_F(
                RELATION = 'GRILLE_PINTO_MEN',
                ),
                         INCREMENT=_F(
                LIST_INST = LINST1,
                NUME_INST_FIN = 1,
                ),
                            NEWTON=_F(
                MATRICE = 'TANGENTE',
                REAC_ITER = 7,
                ),
                           SOLVEUR=_F(
                METHODE = 'LDLT',
                ),
                       CONVERGENCE=_F(
                RESI_GLOB_MAXI = 1.E-4,
                ITER_GLOB_MAXI = 50,
                ),
                          PILOTAGE=_F(
                TYPE = 'DDL_IMPO',
                NOEUD = 'NO3',
                NOM_CMP = 'DX',
                COEF_MULT = 1.0,
                )
              )

LEDEP=STAT_NON_LINE( reuse=LEDEP,
                            MODELE=MOD,
                        CHAM_MATER=CHMAT,
                         CARA_ELEM=CARGR,
                         ETAT_INIT=_F(
                EVOL_NOLI = LEDEP,
                NUME_ORDRE = 1,
                ),EXCIT=(
                             _F(
                CHARGE = CL,
                ),
                             _F(
                CHARGE = CH1,
                TYPE_CHARGE = 'FIXE_PILO',
                )),
                         COMP_INCR=_F(
                RELATION = 'GRILLE_PINTO_MEN',
                ),
                         INCREMENT=_F(
                LIST_INST = LINST1,
                NUME_INST_INIT = 1,
                NUME_INST_FIN = 2,
                ),
                            NEWTON=_F(
                MATRICE = 'TANGENTE',
                REAC_ITER = 7,
                ),
                           SOLVEUR=_F(
                METHODE = 'LDLT',
                ),
                       CONVERGENCE=_F(
                RESI_GLOB_MAXI = 1.E-4,
                ITER_GLOB_MAXI = 50,
                ),
                          PILOTAGE=_F(
                TYPE = 'DDL_IMPO',
                NOEUD = 'NO3',
                NOM_CMP = 'DX',
                COEF_MULT = 1.0,
                )
              )

LEDEP=STAT_NON_LINE( reuse=LEDEP,
                            MODELE=MOD,
                        CHAM_MATER=CHMAT,
                         CARA_ELEM=CARGR,
                         ETAT_INIT=_F(
                EVOL_NOLI = LEDEP,
                NUME_ORDRE = 2,
                ),EXCIT=(
                             _F(
                CHARGE = CL,
                ),
                             _F(
                CHARGE = CH1,
                TYPE_CHARGE = 'FIXE_PILO',
                )),
                         COMP_INCR=_F(
                RELATION = 'GRILLE_PINTO_MEN',
                ),
                         INCREMENT=_F(
                LIST_INST = LINST1,
                NUME_INST_INIT = 2,
                NUME_INST_FIN = 3,
                ),
                            NEWTON=_F(
                MATRICE = 'TANGENTE',
                REAC_ITER = 7,
                ),
                           SOLVEUR=_F(
                METHODE = 'LDLT',
                ),
                       CONVERGENCE=_F(
                RESI_GLOB_MAXI = 1.E-4,
                ITER_GLOB_MAXI = 50,
                ),
                          PILOTAGE=_F(
                TYPE = 'DDL_IMPO',
                NOEUD = 'NO3',
                NOM_CMP = 'DX',
                COEF_MULT = 1.0,
                )
              )

LEDEP=STAT_NON_LINE( reuse=LEDEP,
                            MODELE=MOD,
                        CHAM_MATER=CHMAT,
                         CARA_ELEM=CARGR,
                         ETAT_INIT=_F(
                EVOL_NOLI = LEDEP,
                NUME_ORDRE = 3,
                ),EXCIT=(
                             _F(
                CHARGE = CL,
                ),
                             _F(
                CHARGE = CH1,
                TYPE_CHARGE = 'FIXE_PILO',
                )),
                         COMP_INCR=_F(
                RELATION = 'GRILLE_PINTO_MEN',
                ),
                         INCREMENT=_F(
                LIST_INST = LINST1,
                NUME_INST_INIT = 3,
                NUME_INST_FIN = 4,
                ),
                            NEWTON=_F(
                MATRICE = 'TANGENTE',
                REAC_ITER = 7,
                ),
                           SOLVEUR=_F(
                METHODE = 'LDLT',
                ),
                       CONVERGENCE=_F(
                RESI_GLOB_MAXI = 1.E-4,
                ITER_GLOB_MAXI = 50,
                ),
                          PILOTAGE=_F(
                TYPE = 'DDL_IMPO',
                NOEUD = 'NO3',
                NOM_CMP = 'DX',
                COEF_MULT = -510.,
                )
              )

LEDEP=STAT_NON_LINE( reuse=LEDEP,
                            MODELE=MOD,
                        CHAM_MATER=CHMAT,
                         CARA_ELEM=CARGR,
                         ETAT_INIT=_F(
                EVOL_NOLI = LEDEP,
                NUME_ORDRE = 4,
                ),EXCIT=(
                             _F(
                CHARGE = CL,
                ),
                             _F(
                CHARGE = CH1,
                TYPE_CHARGE = 'FIXE_PILO',
                )),
                         COMP_INCR=_F(
                RELATION = 'GRILLE_PINTO_MEN',
                ),
                         INCREMENT=_F(
                LIST_INST = LINST1,
                NUME_INST_INIT = 4,
                NUME_INST_FIN = 5,
                ),
                            NEWTON=_F(
                MATRICE = 'TANGENTE',
                REAC_ITER = 7,
                ),
                           SOLVEUR=_F(
                METHODE = 'LDLT',
                ),
                       CONVERGENCE=_F(
                RESI_GLOB_MAXI = 1.E-4,
                ITER_GLOB_MAXI = 50,
                ),
                          PILOTAGE=_F(
                TYPE = 'DDL_IMPO',
                NOEUD = 'NO3',
                NOM_CMP = 'DX',
                COEF_MULT = -20.6896552,
                )
              )

LEDEP=STAT_NON_LINE( reuse=LEDEP,
                            MODELE=MOD,
                        CHAM_MATER=CHMAT,
                         CARA_ELEM=CARGR,
                         ETAT_INIT=_F(
                EVOL_NOLI = LEDEP,
                NUME_ORDRE = 5,
                ),EXCIT=(
                             _F(
                CHARGE = CL,
                ),
                             _F(
                CHARGE = CH1,
                TYPE_CHARGE = 'FIXE_PILO',
                )),
                         COMP_INCR=_F(
                RELATION = 'GRILLE_PINTO_MEN',
                ),
                         INCREMENT=_F(
                LIST_INST = LINST1,
                NUME_INST_INIT = 5,
                NUME_INST_FIN = 6,
                ),
                            NEWTON=_F(
                MATRICE = 'TANGENTE',
                REAC_ITER = 7,
                ),
                           SOLVEUR=_F(
                METHODE = 'LDLT',
                ),
                       CONVERGENCE=_F(
                RESI_GLOB_MAXI = 1.E-4,
                ITER_GLOB_MAXI = 50,
                ),
                          PILOTAGE=_F(
                TYPE = 'DDL_IMPO',
                NOEUD = 'NO3',
                NOM_CMP = 'DX',
                COEF_MULT = -100.,
                )
              )

LEDEP=STAT_NON_LINE( reuse=LEDEP,
                            MODELE=MOD,
                        CHAM_MATER=CHMAT,
                         CARA_ELEM=CARGR,
                         ETAT_INIT=_F(
                EVOL_NOLI = LEDEP,
                NUME_ORDRE = 6,
                ),EXCIT=(
                             _F(
                CHARGE = CL,
                ),
                             _F(
                CHARGE = CH1,
                TYPE_CHARGE = 'FIXE_PILO',
                )),
                         COMP_INCR=_F(
                RELATION = 'GRILLE_PINTO_MEN',
                ),
                         INCREMENT=_F(
                LIST_INST = LINST1,
                NUME_INST_INIT = 6,
                NUME_INST_FIN = 7,
                ),
                            NEWTON=_F(
                MATRICE = 'TANGENTE',
                REAC_ITER = 7,
                ),
                           SOLVEUR=_F(
                METHODE = 'LDLT',
                ),
                       CONVERGENCE=_F(
                RESI_GLOB_MAXI = 1.E-4,
                ITER_GLOB_MAXI = 50,
                ),
                          PILOTAGE=_F(
                TYPE = 'DDL_IMPO',
                NOEUD = 'NO3',
                NOM_CMP = 'DX',
                COEF_MULT = 217.1428571,
                )
              )

LEDEP=STAT_NON_LINE( reuse=LEDEP,
                            MODELE=MOD,
                        CHAM_MATER=CHMAT,
                         CARA_ELEM=CARGR,
                         ETAT_INIT=_F(
                EVOL_NOLI = LEDEP,
                NUME_ORDRE = 7,
                ),EXCIT=(
                             _F(
                CHARGE = CL,
                ),
                             _F(
                CHARGE = CH1,
                TYPE_CHARGE = 'FIXE_PILO',
                )),
                         COMP_INCR=_F(
                RELATION = 'GRILLE_PINTO_MEN',
                ),
                         INCREMENT=_F(
                LIST_INST = LINST1,
                NUME_INST_INIT = 7,
                NUME_INST_FIN = 8,
                ),
                            NEWTON=_F(
                MATRICE = 'TANGENTE',
                REAC_ITER = 7,
                ),
                           SOLVEUR=_F(
                METHODE = 'LDLT',
                ),
                       CONVERGENCE=_F(
                RESI_GLOB_MAXI = 1.E-4,
                ITER_GLOB_MAXI = 50,
                ),
                          PILOTAGE=_F(
                TYPE = 'DDL_IMPO',
                NOEUD = 'NO3',
                NOM_CMP = 'DX',
                COEF_MULT = 211.1627907,
                )
              )

LEDEP=STAT_NON_LINE( reuse=LEDEP,
                            MODELE=MOD,
                        CHAM_MATER=CHMAT,
                         CARA_ELEM=CARGR,
                         ETAT_INIT=_F(
                EVOL_NOLI = LEDEP,
                NUME_ORDRE = 8,
                ),EXCIT=(
                             _F(
                CHARGE = CL,
                ),
                             _F(
                CHARGE = CH1,
                TYPE_CHARGE = 'FIXE_PILO',
                )),
                         COMP_INCR=_F(
                RELATION = 'GRILLE_PINTO_MEN',
                ),
                         INCREMENT=_F(
                LIST_INST = LINST1,
                NUME_INST_INIT = 8,
                NUME_INST_FIN = 9,
                ),
                            NEWTON=_F(
                MATRICE = 'TANGENTE',
                REAC_ITER = 7,
                ),
                           SOLVEUR=_F(
                METHODE = 'LDLT',
                ),
                       CONVERGENCE=_F(
                RESI_GLOB_MAXI = 1.E-4,
                ITER_GLOB_MAXI = 50,
                ),
                          PILOTAGE=_F(
                TYPE = 'DDL_IMPO',
                NOEUD = 'NO3',
                NOM_CMP = 'DX',
                COEF_MULT = 100.,
                )
             )

LEDEP=STAT_NON_LINE( reuse=LEDEP,
                            MODELE=MOD,
                        CHAM_MATER=CHMAT,
                         CARA_ELEM=CARGR,
                         ETAT_INIT=_F(
                EVOL_NOLI = LEDEP,
                NUME_ORDRE = 9,
                ),EXCIT=(
                             _F(
                CHARGE = CL,
                ),
                             _F(
                CHARGE = CH1,
                TYPE_CHARGE = 'FIXE_PILO',
                )),
                         COMP_INCR=_F(
                RELATION = 'GRILLE_PINTO_MEN',
                ),
                         INCREMENT=_F(
                LIST_INST = LINST1,
                NUME_INST_INIT = 9,
                NUME_INST_FIN = 10,
                ),
                            NEWTON=_F(
                MATRICE = 'TANGENTE',
                REAC_ITER = 7,
                ),
                           SOLVEUR=_F(
                METHODE = 'LDLT',
                ),
                       CONVERGENCE=_F(
                RESI_GLOB_MAXI = 1.E-4,
                ITER_GLOB_MAXI = 50,
                ),
                          PILOTAGE=_F(
                TYPE = 'DDL_IMPO',
                NOEUD = 'NO3',
                NOM_CMP = 'DX',
                COEF_MULT = -5000.,
                )
              )

LEDEP=STAT_NON_LINE( reuse=LEDEP,
                            MODELE=MOD,
                        CHAM_MATER=CHMAT,
                         CARA_ELEM=CARGR,
                         ETAT_INIT=_F(
                EVOL_NOLI = LEDEP,
                NUME_ORDRE = 10,
                ),EXCIT=(
                             _F(
                CHARGE = CL,
                ),
                             _F(
                CHARGE = CH1,
                TYPE_CHARGE = 'FIXE_PILO',
                )),
                         COMP_INCR=_F(
                RELATION = 'GRILLE_PINTO_MEN',
                ),
                         INCREMENT=_F(
                LIST_INST = LINST1,
                NUME_INST_INIT = 10,
                NUME_INST_FIN = 11,
                ),
                            NEWTON=_F(
                MATRICE = 'TANGENTE',
                REAC_ITER = 7,
                ),
                           SOLVEUR=_F(
                METHODE = 'LDLT',
                ),
                       CONVERGENCE=_F(
                RESI_GLOB_MAXI = 1.E-4,
                ITER_GLOB_MAXI = 50,
                ),
                          PILOTAGE=_F(
                TYPE = 'DDL_IMPO',
                NOEUD = 'NO3',
                NOM_CMP = 'DX',
                COEF_MULT = -263.157895,
                )
              )

LEDEP=STAT_NON_LINE( reuse=LEDEP,
                            MODELE=MOD,
                        CHAM_MATER=CHMAT,
                         CARA_ELEM=CARGR,
                         ETAT_INIT=_F(
                EVOL_NOLI = LEDEP,
                NUME_ORDRE = 11,
                ),EXCIT=(
                             _F(
                CHARGE = CL,
                ),
                             _F(
                CHARGE = CH1,
                TYPE_CHARGE = 'FIXE_PILO',
                )),
                         COMP_INCR=_F(
                RELATION = 'GRILLE_PINTO_MEN',
                ),
                         INCREMENT=_F(
                LIST_INST = LINST1,
                NUME_INST_INIT = 11,
                NUME_INST_FIN = 12,
                ),
                            NEWTON=_F(
                MATRICE = 'TANGENTE',
                REAC_ITER = 7,
                ),
                           SOLVEUR=_F(
                METHODE = 'LDLT',
                ),
                       CONVERGENCE=_F(
                RESI_GLOB_MAXI = 1.E-4,
                ITER_GLOB_MAXI = 50,
                ),
                          PILOTAGE=_F(
                TYPE = 'DDL_IMPO',
                NOEUD = 'NO3',
                NOM_CMP = 'DX',
                COEF_MULT = -250.,
                )
              )

LEDEP=STAT_NON_LINE( reuse=LEDEP,
                            MODELE=MOD,
                        CHAM_MATER=CHMAT,
                         CARA_ELEM=CARGR,
                         ETAT_INIT=_F(
                EVOL_NOLI = LEDEP,
                NUME_ORDRE = 12,
                ),EXCIT=(
                             _F(
                CHARGE = CL,
                ),
                             _F(
                CHARGE = CH1,
                TYPE_CHARGE = 'FIXE_PILO',
                )),
                         COMP_INCR=_F(
                RELATION = 'GRILLE_PINTO_MEN',
                ),
                         INCREMENT=_F(
                LIST_INST = LINST1,
                NUME_INST_INIT = 12,
                NUME_INST_FIN = 13,
                ),
                            NEWTON=_F(
                MATRICE = 'TANGENTE',
                REAC_ITER = 7,
                ),
                           SOLVEUR=_F(
                METHODE = 'LDLT',
                ),
                       CONVERGENCE=_F(
                RESI_GLOB_MAXI = 1.E-4,
                ITER_GLOB_MAXI = 50,
                ),
                          PILOTAGE=_F(
                TYPE = 'DDL_IMPO',
                NOEUD = 'NO3',
                NOM_CMP = 'DX',
                COEF_MULT = 1000.,
                )
              )

LEDEP=STAT_NON_LINE( reuse=LEDEP,
                            MODELE=MOD,
                        CHAM_MATER=CHMAT,
                         CARA_ELEM=CARGR,
                         ETAT_INIT=_F(
                EVOL_NOLI = LEDEP,
                NUME_ORDRE = 13,
                ),EXCIT=(
                             _F(
                CHARGE = CL,
                ),
                             _F(
                CHARGE = CH1,
                TYPE_CHARGE = 'FIXE_PILO',
                )),
                         COMP_INCR=_F(
                RELATION = 'GRILLE_PINTO_MEN',
                ),
                         INCREMENT=_F(
                LIST_INST = LINST1,
                NUME_INST_INIT = 13,
                NUME_INST_FIN = 14,
                ),
                            NEWTON=_F(
                MATRICE = 'TANGENTE',
                REAC_ITER = 7,
                ),
                           SOLVEUR=_F(
                METHODE = 'LDLT',
                ),
                       CONVERGENCE=_F(
                RESI_GLOB_MAXI = 1.E-4,
                ITER_GLOB_MAXI = 50,
                ),
                          PILOTAGE=_F(
                TYPE = 'DDL_IMPO',
                NOEUD = 'NO3',
                NOM_CMP = 'DX',
                COEF_MULT = 1000.,
                )
              )

LEDEP=CALC_ELEM( reuse=LEDEP,
                            OPTION=(
                  'SIGM_ELNO',  'VARI_ELNO',),
                          RESULTAT=LEDEP,
              )

#
# -------------------------------------------------
# POST TRAITEMENT DES RESULTATS
# -------------------------------------------------
#

# SICO_ELNO DEVIENT INUTILE POUR LES GRILLES
#LEDEP=CALC_ELEM(reuse=LEDEP,     RESULTAT=LEDEP,
#                              OPTION='SICO_ELNO'
#                       )

LEDEP=CALC_ELEM(reuse=LEDEP,     RESULTAT=LEDEP,
                              OPTION='EPSI_ELNO'
                       )

#
# -------------------------------------------------
# TEST DES RESULTATS
# -------------------------------------------------
#

TEST_RESU(RESU=(

            _F( RESULTAT = LEDEP,
             INST = 0.001,
             NOM_CHAM = 'SIGM_ELNO',
             NOM_CMP = 'SIXX',
             MAILLE = 'MA1',
             NOEUD = 'NO2',
             VALE = 2.00000E+08,
             PRECISION = 0.01,
            ),
            _F( RESULTAT = LEDEP,
             INST = 0.0023,
             NOM_CHAM = 'SIGM_ELNO',
             NOM_CMP = 'SIXX',
             MAILLE = 'MA1',
             NOEUD = 'NO2',
             VALE = 2.00000E+08,
             PRECISION = 0.01,
            ),
            _F( RESULTAT = LEDEP,
             INST = 0.03,
             NOM_CHAM = 'SIGM_ELNO',
             NOM_CMP = 'SIXX',
             MAILLE = 'MA1',
             NOEUD = 'NO2',
             VALE = 2.58000E+08,
             PRECISION = 0.01,
            ),
            _F( RESULTAT = LEDEP,
             INST = 0.2,
             NOM_CHAM = 'SIGM_ELNO',
             NOM_CMP = 'SIXX',
             MAILLE = 'MA1',
             NOEUD = 'NO2',
             VALE = 1.93156E+08,
             PRECISION = 0.01,
            ),
            _F( RESULTAT = LEDEP,
             INST = 0.4,
             NOM_CHAM = 'SIGM_ELNO',
             NOM_CMP = 'SIXX',
             MAILLE = 'MA1',
             NOEUD = 'NO2',
             VALE = -1.43311E+08,
             PRECISION = 0.01,
            ),
            _F( RESULTAT = LEDEP,
             INST = 6.4,
             NOM_CHAM = 'SIGM_ELNO',
             NOM_CMP = 'SIXX',
             MAILLE = 'MA1',
             NOEUD = 'NO2',
             VALE = -2.77424E+08,
             PRECISION = 0.01,
            ),
            _F( RESULTAT = LEDEP,
             INST = 7.92,
             NOM_CHAM = 'SIGM_ELNO',
             NOM_CMP = 'SIXX',
             MAILLE = 'MA1',
             NOEUD = 'NO2',
             VALE = 1.01029E+08,
             PRECISION = 0.01,
            ),
            _F( RESULTAT = LEDEP,
             INST = 17.,
             NOM_CHAM = 'SIGM_ELNO',
             NOM_CMP = 'SIXX',
             MAILLE = 'MA1',
             NOEUD = 'NO2',
             VALE = 2.16470E+08,
             PRECISION = 0.001,
            ),
            _F( RESULTAT = LEDEP,
             INST = 19.,
             NOM_CHAM = 'SIGM_ELNO',
             NOM_CMP = 'SIXX',
             MAILLE = 'MA1',
             NOEUD = 'NO2',
             VALE = 2.57100E+08,
             PRECISION = 0.01,
            ),
            _F( RESULTAT = LEDEP,
             INST = 20.,
             NOM_CHAM = 'SIGM_ELNO',
             NOM_CMP = 'SIXX',
             MAILLE = 'MA1',
             NOEUD = 'NO2',
             VALE = 2.17745E+08,
             PRECISION = 0.01,
            ),
            _F( RESULTAT = LEDEP,
             INST = 21.,
             NOM_CHAM = 'SIGM_ELNO',
             NOM_CMP = 'SIXX',
             MAILLE = 'MA1',
             NOEUD = 'NO2',
             VALE = -8.03180E+07,
             PRECISION = 0.01,
            ),
            _F( RESULTAT = LEDEP,
             INST = 22.,
             NOM_CHAM = 'SIGM_ELNO',
             NOM_CMP = 'SIXX',
             MAILLE = 'MA1',
             NOEUD = 'NO2',
             VALE = -1.28487E+08,
             PRECISION = 0.01,
            ),
            _F( RESULTAT = LEDEP,
             INST = 25.,
             NOM_CHAM = 'SIGM_ELNO',
             NOM_CMP = 'SIXX',
             MAILLE = 'MA1',
             NOEUD = 'NO2',
             VALE = 2.04332E+08,
             PRECISION = 0.01,
            ),
            _F( RESULTAT = LEDEP,
             INST = 50.,
             NOM_CHAM = 'SIGM_ELNO',
             NOM_CMP = 'SIXX',
             MAILLE = 'MA1',
             NOEUD = 'NO2',
             VALE = 2.97691E+08,
             PRECISION = 0.01,
            ))
        )

TEST_RESU(RESU=(

            _F( RESULTAT = LEDEP,
             INST = 0.001,
             NOM_CHAM = 'EPSI_ELNO',
             NOM_CMP = 'EPXX',
             MAILLE = 'MA1',
             NOEUD = 'NO2',
             VALE = 1.00000E-03,
             PRECISION = 0.01,
            ),
            _F( RESULTAT = LEDEP,
             INST = 0.0023,
             NOM_CHAM = 'EPSI_ELNO',
             NOM_CMP = 'EPXX',
             MAILLE = 'MA1',
             NOEUD = 'NO2',
             VALE = 2.30000E-03,
             PRECISION = 0.01,
            ),
            _F( RESULTAT = LEDEP,
             INST = 0.03,
             NOM_CHAM = 'EPSI_ELNO',
             NOM_CMP = 'EPXX',
             MAILLE = 'MA1',
             NOEUD = 'NO2',
             VALE = 3.00000E-02,
             PRECISION = 0.01,
            ),
            _F( RESULTAT = LEDEP,
             INST = 0.2,
             NOM_CHAM = 'EPSI_ELNO',
             NOM_CMP = 'EPXX',
             MAILLE = 'MA1',
             NOEUD = 'NO2',
             VALE = 2.96667E-02,
             PRECISION = 0.01,
            ),
            _F( RESULTAT = LEDEP,
             INST = 0.4,
             NOM_CHAM = 'EPSI_ELNO',
             NOM_CMP = 'EPXX',
             MAILLE = 'MA1',
             NOEUD = 'NO2',
             VALE = 2.00000E-02,
             PRECISION = 0.01,
            ),
            _F( RESULTAT = LEDEP,
             INST = 6.4,
             NOM_CHAM = 'EPSI_ELNO',
             NOM_CMP = 'EPXX',
             MAILLE = 'MA1',
             NOEUD = 'NO2',
             VALE = -4.00000E-02,
             PRECISION = 0.01,
            ),
            _F( RESULTAT = LEDEP,
             INST = 7.92,
             NOM_CHAM = 'EPSI_ELNO',
             NOM_CMP = 'EPXX',
             MAILLE = 'MA1',
             NOEUD = 'NO2',
             VALE = -3.30000E-02,
             PRECISION = 0.01,
            ),
            _F( RESULTAT = LEDEP,
             INST = 17.,
             NOM_CHAM = 'EPSI_ELNO',
             NOM_CMP = 'EPXX',
             MAILLE = 'MA1',
             NOEUD = 'NO2',
             VALE = 1.00000E-02,
             PRECISION = 0.001,
            ),
            _F( RESULTAT = LEDEP,
             INST = 19.,
             NOM_CHAM = 'EPSI_ELNO',
             NOM_CMP = 'EPXX',
             MAILLE = 'MA1',
             NOEUD = 'NO2',
             VALE = 3.00000E-02,
             PRECISION = 0.01,
            ),
            _F( RESULTAT = LEDEP,
             INST = 20.,
             NOM_CHAM = 'EPSI_ELNO',
             NOM_CMP = 'EPXX',
             MAILLE = 'MA1',
             NOEUD = 'NO2',
             VALE = 2.98000E-02,
             PRECISION = 0.01,
            ),
            _F( RESULTAT = LEDEP,
             INST = 21.,
             NOM_CHAM = 'EPSI_ELNO',
             NOM_CMP = 'EPXX',
             MAILLE = 'MA1',
             NOEUD = 'NO2',
             VALE = 2.60000E-02,
             PRECISION = 0.01,
            ),
            _F( RESULTAT = LEDEP,
             INST = 22.,
             NOM_CHAM = 'EPSI_ELNO',
             NOM_CMP = 'EPXX',
             MAILLE = 'MA1',
             NOEUD = 'NO2',
             VALE = 2.20000E-02,
             PRECISION = 0.01,
            ),
            _F( RESULTAT = LEDEP,
             INST = 25.,
             NOM_CHAM = 'EPSI_ELNO',
             NOM_CMP = 'EPXX',
             MAILLE = 'MA1',
             NOEUD = 'NO2',
             VALE = 2.50000E-02,
             PRECISION = 0.01,
            ),
            _F( RESULTAT = LEDEP,
             INST = 50.,
             NOM_CHAM = 'EPSI_ELNO',
             NOM_CMP = 'EPXX',
             MAILLE = 'MA1',
             NOEUD = 'NO2',
             VALE = 5.00000E-02,
             PRECISION = 0.01,
            ))
        )

FIN( )
#
