# person_in_charge: jean-michel.proix at edf.fr
# TITRE CLAQUAGE  CALOTTE CYLINDRIQUE SHB
# ======================================================================
# COPYRIGHT (C) 1991 - 2012  EDF R&D                  WWW.CODE-ASTER.ORG
# THIS PROGRAM IS FREE SOFTWARE; YOU CAN REDISTRIBUTE IT AND/OR MODIFY
# IT UNDER THE TERMS OF THE GNU GENERAL PUBLIC LICENSE AS PUBLISHED BY
# THE FREE SOFTWARE FOUNDATION; EITHER VERSION 2 OF THE LICENSE, OR
# (AT YOUR OPTION) ANY LATER VERSION.
#
# THIS PROGRAM IS DISTRIBUTED IN THE HOPE THAT IT WILL BE USEFUL, BUT
# WITHOUT ANY WARRANTY; WITHOUT EVEN THE IMPLIED WARRANTY OF
# MERCHANTABILITY OR FITNESS FOR A PARTICULAR PURPOSE. SEE THE GNU
# GENERAL PUBLIC LICENSE FOR MORE DETAILS.
#
# YOU SHOULD HAVE RECEIVED A COPY OF THE GNU GENERAL PUBLIC LICENSE
# ALONG WITH THIS PROGRAM; IF NOT, WRITE TO EDF R&D CODE_ASTER,
#    1 AVENUE DU GENERAL DE GAULLE, 92141 CLAMART CEDEX, FRANCE.
# ======================================================================
# ELEMENT SHBPS - A.COMBESCURE - S.BAGUET -INSA LYON 2003


DEBUT(CODE=_F(NOM='SSNS101A',NIV_PUB_WEB='INTERNET',VISU_EFICAS='OUI',),DEBUG=_F(SDVERI='OUI'))

MAIL=LIRE_MAILLAGE(FORMAT='MED',);

MAIL=MODI_MAILLAGE(reuse =MAIL,
                   MAILLAGE=MAIL,
                   ORIE_SHB=_F(GROUP_MA='GEOTOT',),);
#
#
#


MAIL=DEFI_GROUP(reuse =MAIL,
                MAILLAGE=MAIL,
                CREA_GROUP_NO=(_F(GROUP_MA='SU0',),
                               _F(GROUP_MA='L31290',),
                               _F(GROUP_MA='SUSUP',),),);

MODMECA=AFFE_MODELE(MAILLAGE=MAIL,
                    AFFE=_F(TOUT='OUI',
                            PHENOMENE='MECANIQUE',
                            MODELISATION='SHB',),);


TRAC=DEFI_FONCTION(NOM_PARA='EPSI',
                   VALE=(1.e-03,3.102,
                         0.1   ,33.5,
                         1.    ,150,
                         ),);

MAT=DEFI_MATERIAU(ELAS=_F(E=3102.75,
                          NU=0.3,),
                  TRACTION=_F(SIGM=TRAC,),
                  );


CHM=AFFE_MATERIAU(MAILLAGE=MAIL,
                  AFFE=_F(TOUT='OUI',
                          MATER=MAT,),);

CHARGT=AFFE_CHAR_MECA(MODELE=MODMECA,
                      DDL_IMPO=(_F(GROUP_MA='SU0',
                                   DY=0.0,),
                                _F(GROUP_MA='L31290',
                                   DX=0.0,),
                                _F(GROUP_MA='L31290',
                                   DY=0.0,),
                                _F(GROUP_MA='L31290',
                                   DZ=0.0,),
                                _F(GROUP_MA='SUSUP',
                                   DZ=0.0,),),
                      FORCE_NODALE=_F(GROUP_NO='P2',
                                      FX=-0.25,),);



D_FONC=DEFI_FONCTION(NOM_PARA='INST',
                     VALE=(0.0,0.0,10000.0,10000.0,),);


LISTPILO=DEFI_LIST_REEL(DEBUT=0.0,
                        INTERVALLE=_F(JUSQU_A=45,
                                      NOMBRE=45,),);


NONLIN=STAT_NON_LINE(MODELE=MODMECA,
                     CHAM_MATER=CHM,
                     EXCIT=_F(CHARGE=CHARGT,
                              TYPE_CHARGE='FIXE_PILO',),
                     COMPORTEMENT=_F(RELATION='ELAS',
                                  DEFORMATION='GROT_GDEP',
                                  TOUT='OUI',),
                     INCREMENT=_F(LIST_INST=LISTPILO,),
                     NEWTON=_F(REAC_ITER=0,),
                     PILOTAGE=_F(TYPE='DDL_IMPO',
                                 COEF_MULT=-1.0,
                                 GROUP_NO='P2',
                                 NOM_CMP='DX',),
                     CONVERGENCE=_F(RESI_GLOB_RELA=1e-08,
                                    ITER_GLOB_MAXI=25,),);

NONLIN=CALC_CHAMP(reuse=NONLIN,RESULTAT=NONLIN,CRITERES=('SIEQ_ELGA','SIEQ_ELNO'),CONTRAINTE=('SIGM_ELNO'))



TABDX=POST_RELEVE_T(ACTION=_F(INTITULE='F',
                              GROUP_NO='P2',
                              RESULTAT=NONLIN,
                              NOM_CHAM='DEPL',

                              NOM_CMP='DX',
                              OPERATION='EXTRACTION',),);


TABDX=CALC_TABLE(reuse =TABDX,
               TABLE=TABDX,
               ACTION=(_F(
                          OPERATION = 'FILTRE',
                          NOM_PARA  = 'NUME_ORDRE',
                          CRIT_COMP = 'GT',
                          VALE    = 0,
                         ),),);

FDX=RECU_FONCTION(TABLE=TABDX,INTERPOL='LIN',
                  PARA_X='INST',
                  PARA_Y='DX',);

LISTEXTR=DEFI_LIST_REEL(DEBUT=1.0,
                        INTERVALLE=_F(JUSQU_A=45,
                                      NOMBRE=44,),);

FETA=RECU_FONCTION(RESULTAT=NONLIN,
                   INTERPOL='LIN',
                   PROL_GAUCHE='CONSTANT',
                   LIST_INST       =LISTEXTR,
                   NOM_PARA_RESU='ETA_PILOTAGE',);



TEST_FONCTION(VALEUR=(_F(VALE_CALC=422.255667493,
                         VALE_REFE=418.99299999999999,
                         VALE_PARA=0.86329999999999996,
                         REFERENCE='ANALYTIQUE',
                         PRECISION=0.080000000000000002,
                         FONCTION=FETA,),
                      _F(VALE_CALC=2427.36722085,
                         VALE_REFE=2399.0599999999999,
                         VALE_PARA=6.9859999999999998,
                         REFERENCE='ANALYTIQUE',
                         PRECISION=0.080000000000000002,
                         FONCTION=FETA,),
                      _F(VALE_CALC=3956.29513137,
                         VALE_REFE=3882.8899999999999,
                         VALE_PARA=14.199999999999999,
                         REFERENCE='ANALYTIQUE',
                         PRECISION=0.080000000000000002,
                         FONCTION=FETA,),
                      _F(VALE_CALC=2438.09043319,
                         VALE_REFE=2276.8000000000002,
                         VALE_PARA=25.690000000000001,
                         REFERENCE='ANALYTIQUE',
                         PRECISION=0.080000000000000002,
                         FONCTION=FETA,),
                      ),
              )

HEXA=DEFI_FONCTION(NOM_PARA='INST',INTERPOL='LIN',PROL_DROITE='CONSTANT',PROL_GAUCHE='CONSTANT',
                   VALE=(
  8.63300E-01 ,   4.18993E+02,
  1.28900E+00 ,   5.31761E+02,
  1.71200E+00 ,   6.96816E+02,
  2.13400E+00 ,   8.57929E+02,
  2.55300E+00 ,   1.01032E+03,
  2.97000E+00 ,   1.16198E+03,
  3.38400E+00 ,   1.30321E+03,
  3.79600E+00 ,   1.44302E+03,
  4.20500E+00 ,   1.57723E+03,
  4.61100E+00 ,   1.70593E+03,
  5.01500E+00 ,   1.83369E+03,
  5.41500E+00 ,   1.95225E+03,
  5.81200E+00 ,   2.06992E+03,
  6.20700E+00 ,   2.18304E+03,
  6.59800E+00 ,   2.29147E+03,
  6.98600E+00 ,   2.39906E+03,
  7.37100E+00 ,   2.49919E+03,
  7.75300E+00 ,   2.59828E+03,
  8.13100E+00 ,   2.69411E+03,
  8.50600E+00 ,   2.78499E+03,
# ... 78 like lines cut
                        ),);

IMPR_FONCTION(UNITE=8,
            FORMAT='TABLEAU',
            COURBE=(_F(FONCTION=HEXA,),
                    _F(FONCTION=FETA,),),);


DIFF=CALC_FONCTION(COMB=(
                          _F(  FONCTION = FETA, COEF =  1.),
                          _F(  FONCTION = HEXA, COEF = -1.),
                          ) )

IMPR_FONCTION(UNITE=8,
            FORMAT='TABLEAU',
            COURBE=(_F(FONCTION=DIFF,),),);

MAXHEXA=INFO_FONCTION( MAX=_F(  FONCTION = HEXA)    )

IMPR_TABLE(TABLE=MAXHEXA)

# LA TOLERANCE IMPOSEE DANS LE TEST_FONCTION EST DE 55.. CETTE VALEUR CORRESPOND AU MAXIMUM
# DE LA FONCTION HEXA MULTIPLIEE PAR 0.02.

# COMPARAISON A LA SOLUTION HEXA

TEST_FONCTION(VALEUR=(_F(VALE_CALC=9.42700533321,
                         VALE_REFE=0.0,
                         CRITERE='ABSOLU',
                         VALE_PARA=2.0,
                         REFERENCE='SOURCE_EXTERNE',
                         PRECISION=200.0,
                         FONCTION=DIFF,),
                      _F(VALE_CALC=11.7265404177,
                         VALE_REFE=0.0,
                         CRITERE='ABSOLU',
                         VALE_PARA=3.0,
                         REFERENCE='SOURCE_EXTERNE',
                         PRECISION=200.0,
                         FONCTION=DIFF,),
                      _F(VALE_CALC=17.5536009564,
                         VALE_REFE=0.0,
                         CRITERE='ABSOLU',
                         VALE_PARA=4.0,
                         REFERENCE='SOURCE_EXTERNE',
                         PRECISION=200.0,
                         FONCTION=DIFF,),
                      _F(VALE_CALC=19.8713746648,
                         VALE_REFE=0.0,
                         CRITERE='ABSOLU',
                         VALE_PARA=5.0,
                         REFERENCE='SOURCE_EXTERNE',
                         PRECISION=200.0,
                         FONCTION=DIFF,),
                      _F(VALE_CALC=25.8195037142,
                         VALE_REFE=0.0,
                         CRITERE='ABSOLU',
                         VALE_PARA=6.0,
                         REFERENCE='SOURCE_EXTERNE',
                         PRECISION=200.0,
                         FONCTION=DIFF,),
                      _F(VALE_CALC=28.6103860747,
                         VALE_REFE=0.0,
                         CRITERE='ABSOLU',
                         VALE_PARA=7.0,
                         REFERENCE='SOURCE_EXTERNE',
                         PRECISION=200.0,
                         FONCTION=DIFF,),
                      _F(VALE_CALC=34.3684490972,
                         VALE_REFE=0.0,
                         CRITERE='ABSOLU',
                         VALE_PARA=8.0,
                         REFERENCE='SOURCE_EXTERNE',
                         PRECISION=200.0,
                         FONCTION=DIFF,),
                      _F(VALE_CALC=39.0241532771,
                         VALE_REFE=0.0,
                         CRITERE='ABSOLU',
                         VALE_PARA=9.0,
                         REFERENCE='SOURCE_EXTERNE',
                         PRECISION=200.0,
                         FONCTION=DIFF,),
                      _F(VALE_CALC=43.1702555633,
                         VALE_REFE=0.0,
                         CRITERE='ABSOLU',
                         VALE_PARA=10.0,
                         REFERENCE='SOURCE_EXTERNE',
                         PRECISION=200.0,
                         FONCTION=DIFF,),
                      _F(VALE_CALC=49.0212818698,
                         VALE_REFE=0.0,
                         CRITERE='ABSOLU',
                         VALE_PARA=11.0,
                         REFERENCE='SOURCE_EXTERNE',
                         PRECISION=200.0,
                         FONCTION=DIFF,),
                      _F(VALE_CALC=55.9687200525,
                         VALE_REFE=0.0,
                         CRITERE='ABSOLU',
                         VALE_PARA=12.0,
                         REFERENCE='SOURCE_EXTERNE',
                         PRECISION=200.0,
                         FONCTION=DIFF,),
                      _F(VALE_CALC=63.2358681983,
                         VALE_REFE=0.0,
                         CRITERE='ABSOLU',
                         VALE_PARA=13.0,
                         REFERENCE='SOURCE_EXTERNE',
                         PRECISION=200.0,
                         FONCTION=DIFF,),
                      _F(VALE_CALC=71.8578216542,
                         VALE_REFE=0.0,
                         CRITERE='ABSOLU',
                         VALE_PARA=14.0,
                         REFERENCE='SOURCE_EXTERNE',
                         PRECISION=200.0,
                         FONCTION=DIFF,),
                      _F(VALE_CALC=83.2362335719,
                         VALE_REFE=0.0,
                         CRITERE='ABSOLU',
                         VALE_PARA=15.0,
                         REFERENCE='SOURCE_EXTERNE',
                         PRECISION=200.0,
                         FONCTION=DIFF,),
                      _F(VALE_CALC=96.9692671271,
                         VALE_REFE=0.0,
                         CRITERE='ABSOLU',
                         VALE_PARA=16.0,
                         REFERENCE='SOURCE_EXTERNE',
                         PRECISION=200.0,
                         FONCTION=DIFF,),
                      _F(VALE_CALC=113.33223647,
                         VALE_REFE=0.0,
                         CRITERE='ABSOLU',
                         VALE_PARA=17.0,
                         REFERENCE='SOURCE_EXTERNE',
                         PRECISION=200.0,
                         FONCTION=DIFF,),
                      _F(VALE_CALC=132.510588767,
                         VALE_REFE=0.0,
                         CRITERE='ABSOLU',
                         VALE_PARA=18.0,
                         REFERENCE='SOURCE_EXTERNE',
                         PRECISION=200.0,
                         FONCTION=DIFF,),
                      _F(VALE_CALC=183.366500356,
                         VALE_REFE=0.0,
                         CRITERE='ABSOLU',
                         VALE_PARA=19.0,
                         REFERENCE='SOURCE_EXTERNE',
                         PRECISION=200.0,
                         FONCTION=DIFF,),
                      _F(VALE_CALC=193.771967961,
                         VALE_REFE=0.0,
                         CRITERE='ABSOLU',
                         VALE_PARA=20.0,
                         REFERENCE='SOURCE_EXTERNE',
                         PRECISION=200.0,
                         FONCTION=DIFF,),
                      ),
              )

# RECHERCHE DE LA VALEUR MAXIMUM DE LA VALEUR ABSOLUE DE LA FONCTION HEXA

ABSHEXA = CALC_FONCTION( ABS=_F(  FONCTION = HEXA)    )
MXHEXA  = INFO_FONCTION( MAX=_F(  FONCTION = ABSHEXA)    )
IMPR_TABLE(TABLE=MXHEXA)

# RECHERCHE DE LA VALEUR MAXIMUM DE LA VALEUR ABSOLUE DE LA DIFFERENCE
# ENTRE LA FONCTION HEXA ET LA FONCTION FETA (RESULTAT DES CALCULS ASTER)

ABSDIFF  = CALC_FONCTION( ABS=_F(  FONCTION = DIFF)    )
MXDIFF   = INFO_FONCTION( MAX=_F(  FONCTION = ABSDIFF)    )
IMPR_TABLE(TABLE=MXDIFF)

TEST_TABLE(REFERENCE='ANALYTIQUE',
           PRECISION=1.E-3,
           VALE_CALC= 4.17993000E+03,
           VALE_REFE=4180.0,
           NOM_PARA='TOUTRESU',
           TABLE=MXHEXA,
           FILTRE=(_F(NOM_PARA='FONCTION',
                      VALE_K='ABSHEXA',),
                   _F(NOM_PARA='TYPE',
                      VALE_K='MAXI',),
                   ),
           )

TEST_TABLE(REFERENCE='ANALYTIQUE',
           PRECISION=1.E-3,
           VALE_CALC= 2.73288299E+03,
           VALE_REFE=2733.0,
           NOM_PARA='ETA_PILO',
           TABLE=MXDIFF,
           FILTRE=(_F(NOM_PARA='FONCTION',
                      VALE_K='ABSDIFF',),
                   _F(NOM_PARA='TYPE',
                      VALE_K='MAXI',),
                   ),
           )

# ON TRACE LES COURBES RESULTATS ASTER ET HEXA

#IMPR_FONCTION(
#    FORMAT    = 'XMGRACE',
#    PILOTE    = 'INTERACTIF',
#    LEGENDE_X = 'Instant',
#    LEGENDE_Y = 'FORCE',
#    BORNE_X   = (0.,50.),
#    BORNE_Y   = (-1000., 5000.),
#    GRILLE_X  = 5.,
#    GRILLE_Y  = 1000.,
#    COURBE=(_F(FONCTION=FETA,LEGENDE='ASTER'),
#            _F(FONCTION=HEXA,LEGENDE='HEXA')))


FIN()
