# MODIF  DATE 30/07/2012   AUTEUR LEFEBVRE J-P.LEFEBVRE 
# RESPONSABLE ABBAS M.ABBAS
# TITRE TRACTION EN GRANDS DEPLACEMENTS, D'UN BARREAU CONSTITUE
# ssnv227a.para = tps_job 300 mem_job 512Mo ncpus 1 liste_test R
#            CONFIGURATION MANAGEMENT OF EDF VERSION
# ======================================================================
# COPYRIGHT (C) 1991 - 2012  EDF R&D                  WWW.CODE-ASTER.ORG
# THIS PROGRAM IS FREE SOFTWARE; YOU CAN REDISTRIBUTE IT AND/OR MODIFY  
# IT UNDER THE TERMS OF THE GNU GENERAL PUBLIC LICENSE AS PUBLISHED BY  
# THE FREE SOFTWARE FOUNDATION; EITHER VERSION 2 OF THE LICENSE, OR     
# (AT YOUR OPTION) ANY LATER VERSION.                                                    
#                                                                       
# THIS PROGRAM IS DISTRIBUTED IN THE HOPE THAT IT WILL BE USEFUL, BUT   
# WITHOUT ANY WARRANTY; WITHOUT EVEN THE IMPLIED WARRANTY OF            
# MERCHANTABILITY OR FITNESS FOR A PARTICULAR PURPOSE. SEE THE GNU      
# GENERAL PUBLIC LICENSE FOR MORE DETAILS.                              
#                                                                       
# YOU SHOULD HAVE RECEIVED A COPY OF THE GNU GENERAL PUBLIC LICENSE     
# ALONG WITH THIS PROGRAM; IF NOT, WRITE TO EDF R&D CODE_ASTER,         
#    1 AVENUE DU GENERAL DE GAULLE, 92141 CLAMART CEDEX, FRANCE.        
# ======================================================================
#       D4UN MATERIAU DE TYPE MOONEY-RIVLIN

DEBUT(CODE=_F(NOM='SSNV227A',NIV_PUB_WEB='INTERNET',
              VISU_EFICAS='OUI',),DEBUG=_F(SDVERI='OUI'))

Mesh=LIRE_MAILLAGE(FORMAT='MED',NOM_MED='Mblock');


Mod3d=AFFE_MODELE(MAILLAGE=Mesh,
                   AFFE=_F(TOUT='OUI',
                           PHENOMENE='MECANIQUE',
                           MODELISATION='3D',),);                   


Mesh=MODI_MAILLAGE(reuse=Mesh,MAILLAGE=Mesh,
                   ORIE_PEAU_3D=_F(GROUP_MA='Atop',),)

                    
Pression = -6.000                     
FORCE=AFFE_CHAR_MECA(MODELE=Mod3d,
                     PRES_REP=_F(GROUP_MA='Atop',
                                 PRES=Pression),);

DEPL=AFFE_CHAR_MECA(MODELE=Mod3d,
                     DDL_IMPO=(_F(GROUP_MA='Abot',DZ=0.0),
                               _F(GROUP_NO='Nfixx',DY=0.0),
                               _F(GROUP_NO='Nfixy',DX=0.0),),);


LISTE=DEFI_LIST_REEL(DEBUT=0.0,
                     INTERVALLE=_F(JUSQU_A=1.0,NOMBRE=20,),
                     INFO=2);

RAMPE=DEFI_FONCTION(NOM_PARA='INST',
                VALE=(0.0,0.0,
                      1.0,1.0,),
                INFO=2);                                 
                                   


# MATERIAU HYPER-ELASTIQUE: Mooney-Rivlin
C01 = 2.3456;
C10 = 0.709;
C20 = 0.0;
NU  = 0.499
K   = (6*(C10+C01))/(3*(1-2*NU))

rubber=DEFI_MATERIAU(ELAS_HYPER=_F(C10=C10,
                                   C01=C01,
                                   C20=C20,
                                   K=K,),);


MatRub=AFFE_MATERIAU(MAILLAGE=Mesh,
                    MODELE=Mod3d,
                    AFFE=_F(TOUT='OUI',
                            MATER=rubber,),);

# CALCUL EN PETITES PERTURBATIONS (HPP)
# PRESSION APPLIQUEE = 6Pa                          

LIST_HPP=DEFI_LIST_REEL(DEBUT=0.0,
                     INTERVALLE=_F(JUSQU_A=1.e-6,NOMBRE=1,),
                     INFO=2);

res_HPP=STAT_NON_LINE(MODELE=Mod3d,
                   CHAM_MATER=MatRub,
                   EXCIT=(_F(CHARGE=FORCE,FONC_MULT=RAMPE),
                          _F(CHARGE=DEPL,),),
                   NEWTON=(_F(REAC_INCR=1,
                              MATRICE='TANGENTE',
                              REAC_ITER=1,)),                   
                   COMP_INCR=_F(RELATION='ELAS_HYPER',
                                DEFORMATION = 'GROT_GDEP',
                                TOUT='OUI',),
                   CONVERGENCE=(_F(ARRET='OUI',)),                               
                   INCREMENT=_F(LIST_INST=LIST_HPP,),);

# POST-TRAITEMENT

CALC_CHAMP( reuse=res_HPP,  RESULTAT=res_HPP,
         CONTRAINTE='SIEF_NOEU'
       )

TEST_RESU(RESU=(_F(RESULTAT=res_HPP,
                   NUME_ORDRE=1,
                   NOEUD='N1535',
                   NOM_CHAM='DEPL',
                   NOM_CMP='DZ',
                   CRITERE='RELATIF',
                   REFERENCE='ANALYTIQUE',
                   VALE = 1.40865e-5,
                   PRECISION  = 0.001,)))

# CALCUL EN GRANDS DEPLACEMENTS AVEC PRESSION SUIVEUSE
# PRESSION APPLIQUEE = 6MPa                          

res=STAT_NON_LINE(MODELE=Mod3d,
                   CHAM_MATER=MatRub,
                   EXCIT=(_F(CHARGE=FORCE,FONC_MULT=RAMPE,TYPE_CHARGE='SUIV'),
                          _F(CHARGE=DEPL,),),
                   NEWTON=(_F(REAC_INCR=1,
                              MATRICE='TANGENTE',
                              REAC_ITER=1,)),                   
                   COMP_INCR=_F(RELATION='ELAS_HYPER',
                                DEFORMATION = 'GROT_GDEP',
                                TOUT='OUI',),
                   CONVERGENCE=(_F(ARRET='OUI',
                                   ITER_GLOB_MAXI=50)),                               
                   INCREMENT=_F(LIST_INST=LISTE,),);

# POST-TRAITEMENT

CALC_CHAMP( reuse=res,  RESULTAT=res,
         CONTRAINTE='SIEF_NOEU',DEFORMATION='EPSI_NOEU',
       )

TEST_RESU(RESU=(_F(RESULTAT=res,
                   NUME_ORDRE=20,
                   NOEUD='N2',
                   NOM_CHAM='DEPL',
                   NOM_CMP='DX',
                   CRITERE='RELATIF',
                   REFERENCE='NON_REGRESSION',
                   VALE = -0.39038,
                   PRECISION  = 0.001,),
                _F(RESULTAT=res,
                   NUME_ORDRE=20,
                   NOEUD='N4',
                   NOM_CHAM='DEPL',
                   NOM_CMP='DX',
                   CRITERE='RELATIF',
                   REFERENCE='NON_REGRESSION',
                   VALE = 0.39038,
                   PRECISION  = 0.001)))

TEST_RESU(RESU=(_F(RESULTAT=res,
                   NUME_ORDRE=20,
                   NOEUD='N2',
                   NOM_CHAM='DEPL',
                   NOM_CMP='DY',
                   CRITERE='RELATIF',
                   REFERENCE='NON_REGRESSION',
                   VALE = 0.93691,
                   PRECISION  = 0.001,),
                _F(RESULTAT=res,
                   NUME_ORDRE=20,
                   NOEUD='N8',
                   NOM_CHAM='DEPL',
                   NOM_CMP='DY',
                   CRITERE='RELATIF',
                   REFERENCE='NON_REGRESSION',
                   VALE = -0.93691,
                   PRECISION  = 0.001)))


TEST_RESU(RESU=_F(RESULTAT=res,
                  NUME_ORDRE=20,
                  NOEUD='N1535',
                  NOM_CHAM='DEPL',
                  NOM_CMP='DZ',
                  CRITERE='RELATIF',
                  REFERENCE='NON_REGRESSION',
                  VALE = 17.42597,
                  PRECISION  = 0.001,),)


TEST_RESU(RESU=(_F(RESULTAT=res,
                  NUME_ORDRE=20,
                  NOEUD='N1535',
                  NOM_CHAM='SIEF_NOEU',
                  NOM_CMP='SIXX',
                  CRITERE='ABSOLU',
                  REFERENCE='NON_REGRESSION',
                  VALE = 0.0,
                  PRECISION  = 0.001,),
                _F(RESULTAT=res,
                  NUME_ORDRE=20,
                  NOEUD='N1535',
                  NOM_CHAM='SIEF_NOEU',
                  NOM_CMP='SIYY',
                  CRITERE='ABSOLU',
                  REFERENCE='NON_REGRESSION',
                  VALE = 0.0,
                  PRECISION  = 0.001,),
                _F(RESULTAT=res,
                  NUME_ORDRE=20,
                  NOEUD='N1535',
                  NOM_CHAM='SIEF_NOEU',
                  NOM_CMP='SIZZ',
                  CRITERE='RELATIF',
                  REFERENCE='NON_REGRESSION',
                  VALE = 6.0,
                  PRECISION  = 0.001,),
                _F(RESULTAT=res,
                  NUME_ORDRE=20,
                  NOEUD='N1535',
                  NOM_CHAM='SIEF_NOEU',
                  NOM_CMP='SIXY',
                  CRITERE='ABSOLU',
                  REFERENCE='NON_REGRESSION',
                  VALE = 0.0,
                  PRECISION  = 0.001,),
                _F(RESULTAT=res,
                  NUME_ORDRE=20,
                  NOEUD='N1535',
                  NOM_CHAM='SIEF_NOEU',
                  NOM_CMP='SIXZ',
                  CRITERE='ABSOLU',
                  REFERENCE='NON_REGRESSION',
                  VALE = 0.0,
                  PRECISION  = 0.001,),
                _F(RESULTAT=res,
                  NUME_ORDRE=20,
                  NOEUD='N1535',
                  NOM_CHAM='SIEF_NOEU',
                  NOM_CMP='SIYZ',
                  CRITERE='ABSOLU',
                  REFERENCE='NON_REGRESSION',
                  VALE = 0.0,
                  PRECISION  = 0.001,),
                  ))

TEST_RESU(RESU=(_F(RESULTAT=res,
                   NUME_ORDRE=20,
                   NOEUD='N1535',
                   NOM_CHAM='EPSI_NOEU',
                   NOM_CMP='EPXX',
                   CRITERE='RELATIF',
                   REFERENCE='NON_REGRESSION',
                   VALE = -1.5615E-01,
                   PRECISION  = 0.001,),
                _F(RESULTAT=res,
                   NUME_ORDRE=20,
                   NOEUD='N1535',
                   NOM_CHAM='EPSI_NOEU',
                   NOM_CMP='EPYY',
                   CRITERE='RELATIF',
                   REFERENCE='NON_REGRESSION',
                   VALE = -1.5615E-01,
                   PRECISION  = 0.001,),
                _F(RESULTAT=res,
                   NUME_ORDRE=20,
                   NOEUD='N1535',
                   NOM_CHAM='EPSI_NOEU',
                   NOM_CMP='EPZZ',
                   CRITERE='RELATIF',
                   REFERENCE='NON_REGRESSION',
                   VALE = 4.05255E-01,
                   PRECISION  = 0.001,),
                _F(RESULTAT=res,
                   NUME_ORDRE=20,
                   NOEUD='N1535',
                   NOM_CHAM='EPSI_NOEU',
                   NOM_CMP='EPXY',
                   CRITERE='ABSOLU',
                   REFERENCE='NON_REGRESSION',
                   VALE = 0.0,
                   PRECISION  = 0.001,),
                _F(RESULTAT=res,
                   NUME_ORDRE=20,
                   NOEUD='N1535',
                   NOM_CHAM='EPSI_NOEU',
                   NOM_CMP='EPXZ',
                   CRITERE='ABSOLU',
                   REFERENCE='NON_REGRESSION',
                   VALE = 0.0,
                   PRECISION  = 0.001,),
                _F(RESULTAT=res,
                   NUME_ORDRE=20,
                   NOEUD='N1535',
                   NOM_CHAM='EPSI_NOEU',
                   NOM_CMP='EPYZ',
                   CRITERE='ABSOLU',
                   REFERENCE='NON_REGRESSION',
                   VALE = 0.0,
                   PRECISION  = 0.001,),
                 ))
FIN();

