# MODIF  DATE 07/11/2006   AUTEUR CIBHHLV L.VIVAN 
# TITRE  CONTACT MAILLE TRIA7, MODELISATION COQUE_3D
#            CONFIGURATION MANAGEMENT OF EDF VERSION
# ======================================================================
# COPYRIGHT (C) 1991 - 2005  EDF R&D                  WWW.CODE-ASTER.ORG
# THIS PROGRAM IS FREE SOFTWARE; YOU CAN REDISTRIBUTE IT AND/OR MODIFY  
# IT UNDER THE TERMS OF THE GNU GENERAL PUBLIC LICENSE AS PUBLISHED BY  
# THE FREE SOFTWARE FOUNDATION; EITHER VERSION 2 OF THE LICENSE, OR     
# (AT YOUR OPTION) ANY LATER VERSION.                                                    
#                                                                       
# THIS PROGRAM IS DISTRIBUTED IN THE HOPE THAT IT WILL BE USEFUL, BUT   
# WITHOUT ANY WARRANTY; WITHOUT EVEN THE IMPLIED WARRANTY OF            
# MERCHANTABILITY OR FITNESS FOR A PARTICULAR PURPOSE. SEE THE GNU      
# GENERAL PUBLIC LICENSE FOR MORE DETAILS.                              
#                                                                       
# YOU SHOULD HAVE RECEIVED A COPY OF THE GNU GENERAL PUBLIC LICENSE     
# ALONG WITH THIS PROGRAM; IF NOT, WRITE TO EDF R&D CODE_ASTER,         
#    1 AVENUE DU GENERAL DE GAULLE, 92141 CLAMART CEDEX, FRANCE.        
# ======================================================================
#
# 
DEBUT(CODE=_F(NOM='SSNV129C', NIV_PUB_WEB='INTERNET',),);

PRE_GIBI();

MA1=LIRE_MAILLAGE(VERI_MAIL=_F(VERIF='OUI',),);

MAP=CREA_MAILLAGE(MAILLAGE=MA1,
                  MODI_MAILLE=(_F(GROUP_MA='Q21',
                                  OPTION='QUAD8_9',),
                               _F(GROUP_MA='Q1',
                                  OPTION='QUAD8_9',),),);
#
# TRANSFO EN TRIA3

MATRI3=CREA_MAILLAGE(MAILLAGE=MAP,
                     MODI_MAILLE=_F(TOUT='OUI',
                                    OPTION='QUAD_TRIA3',),);
#
# TRANSFO EN TRIA6

MATRI6=CREA_MAILLAGE(MAILLAGE=MATRI3,
                     LINE_QUAD=_F(TOUT='OUI',
                                  PREF_NOEUD='NW',),);
#
# TRANSFO EN TRIA7

MA2=CREA_MAILLAGE(MAILLAGE=MATRI6,
                  MODI_MAILLE=_F(TOUT='OUI',
                                 OPTION='TRIA6_7',
                                 PREF_NOEUD='NT',),);


MO=AFFE_MODELE(MAILLAGE=MA2,
               AFFE=(_F(GROUP_MA=('Q1','Q21',),
                        PHENOMENE='MECANIQUE',
                        MODELISATION='COQUE_3D',),),);


MA2=DEFI_GROUP(reuse =MA2,
               MAILLAGE=MA2,
               CREA_GROUP_NO=_F(TOUT_GROUP_MA='OUI',),);


CAREL=AFFE_CARA_ELEM(MODELE=MO,
                     COQUE=(_F(GROUP_MA='Q21',
                               EPAIS=0.5,),
                            _F(GROUP_MA='Q1',
                               EPAIS=0.5,),),);


MAT=DEFI_MATERIAU(ELAS=_F(E=200000000000.0,
                          NU=0.3,),);


CHMAT=AFFE_MATERIAU(MAILLAGE=MA2,
                    AFFE=_F(TOUT='OUI',
                            MATER=MAT,),);


CHA1=AFFE_CHAR_MECA(MODELE=MO,
                    PRES_REP=_F(GROUP_MA='Q21',
                                PRES=-250000000.0,),);

CHA0=AFFE_CHAR_CINE(MODELE=MO,
                    MECA_IMPO=(
                              _F(GROUP_NO='CENTE1',
                                 DX=0.0,
                                 DY=0.0,
                                 DRX=0.0,
                                 DRY=0.0,
                                 DRZ=0.0,),
                              _F(GROUP_NO='CENTE2',
                                 DX=0.0,
                                 DY=0.0,
                                 DRX=0.0,
                                 DRY=0.0,
                                 DRZ=0.0,),
                              _F(GROUP_NO=('DR1','DR21'),
                                 DX=0.0,
                                 DZ=0.0,
                                 DRY=0.0,),
                              _F(GROUP_NO=('DR2','DR22'),
                                 DY=0.0,
                                 DZ=0.0,
                                 DRX=0.0,),
                              _F(GROUP_NO=('DR3','DR23'),
                                 DX=0.0,
                                 DZ=0.0, 
                                 DRY=0.0,),
                              _F(GROUP_NO=('DR4','DR24'),
                                 DY=0.0,
                                 DZ=0.0,
                                 DRX=0.0,),
                                 ),);

CHA2=AFFE_CHAR_MECA(MODELE=MO,
                    CONTACT=_F(GROUP_MA_MAIT='Q1',
                               GROUP_MA_ESCL='Q21',
                               REAC_GEOM='SANS',
                               ),
                    INFO=1,);

RAMPE=DEFI_FONCTION(NOM_PARA='INST',
                    VALE=(0.0,0.0,
                          1.0,1.0,),
                    PROL_DROITE='LINEAIRE',
                    PROL_GAUCHE='LINEAIRE',);


L_INST=DEFI_LIST_REEL(DEBUT=0.0,
                      INTERVALLE=_F(JUSQU_A=1.0,
                                    NOMBRE=1,),);


RESU=STAT_NON_LINE(MODELE=MO,
                   CHAM_MATER=CHMAT,
                   CARA_ELEM=CAREL,
                   EXCIT=(_F(CHARGE=CHA1,
                             FONC_MULT=RAMPE,),
                          _F(CHARGE=CHA0,),
                          _F(CHARGE=CHA2,),
                          ),
                   COMP_INCR=_F(RELATION='ELAS',),
                   INCREMENT=_F(LIST_INST=L_INST,),
                   INFO=1,);


RESU = CALC_ELEM( reuse = RESU,
                  RESULTAT=RESU,
                  REPE_COQUE=_F(NIVE_COUCHE='INF',),
                  OPTION='SIGM_ELNO_COQU');

RESU=CALC_NO(reuse =RESU,
             RESULTAT=RESU,
             OPTION='SIGM_NOEU_COQU');

TEST_RESU(RESU=(_F(RESULTAT=RESU,
                   NUME_ORDRE=1,
                   NOM_CHAM='DEPL',
                   NOM_CMP='DZ',
                   GROUP_NO='CENTE1',
                   VALE=-0.342675,
                   CRITERE='RELATIF',
                   PRECISION=0.02,
                   REFERENCE='ANALYTIQUE',),
                _F(RESULTAT=RESU,
                   NUME_ORDRE=1,
                   NOM_CHAM='SIGM_NOEU_COQU',
                   NOM_CMP='SIYY',
                   GROUP_NO='CENTE1',
                   VALE=7.6481E9,
                   CRITERE='RELATIF',
                   PRECISION=0.05,
                   REFERENCE='ANALYTIQUE',),
                   ),);

TEST_RESU(RESU=(_F(RESULTAT=RESU,
                   NUME_ORDRE=1,
                   NOM_CHAM='SIGM_NOEU_COQU',
                   NOM_CMP='SIYY',
                   GROUP_NO='A1',
                   VALE=-2.4007275975594E+09,
                   CRITERE='RELATIF',
                   PRECISION=1.E-7,
                   REFERENCE='NON_REGRESSION',
                   VERSION = '8.3.21',),
                _F(RESULTAT=RESU,
                   NUME_ORDRE=1,
                   NOM_CHAM='SIGM_NOEU_COQU',
                   NOM_CMP='SIYY',
                   GROUP_NO='A3',
                   VALE=1.2891421428655E+09,
                   CRITERE='RELATIF',
                   PRECISION=1.E-7,
                   REFERENCE='NON_REGRESSION',
                   VERSION = '8.3.21',),  
                _F(RESULTAT=RESU,
                   NUME_ORDRE=1,
                   NOM_CHAM='SIGM_NOEU_COQU',
                   NOM_CMP='SIYY',
                   GROUP_NO='B1',
                   VALE=-2.4007275975593E+09,
                   CRITERE='RELATIF',
                   PRECISION=1.E-7,
                   REFERENCE='NON_REGRESSION',
                   VERSION = '8.3.21',),  
                _F(RESULTAT=RESU,
                   NUME_ORDRE=1,
                   NOM_CHAM='SIGM_NOEU_COQU',
                   NOM_CMP='SIYY',
                   GROUP_NO='B3',
                   VALE=1.2891421428654E+09,
                   CRITERE='RELATIF',
                   PRECISION=1.E-7,
                   REFERENCE='NON_REGRESSION',
                   VERSION = '8.3.21',),  
                   ),);

FIN();
