# MODIF  DATE 23/03/2010   AUTEUR COURTOIS M.COURTOIS 
# TITRE BARREAU FISSURE AVEC X-FEM
# ssnv195c.para = tps_job 60 mem_job 128Mo ncpus 1 liste_test S
#            CONFIGURATION MANAGEMENT OF EDF VERSION
# ======================================================================
# COPYRIGHT (C) 1991 - 2007  EDF R&D                  WWW.CODE-ASTER.ORG
# THIS PROGRAM IS FREE SOFTWARE; YOU CAN REDISTRIBUTE IT AND/OR MODIFY  
# IT UNDER THE TERMS OF THE GNU GENERAL PUBLIC LICENSE AS PUBLISHED BY  
# THE FREE SOFTWARE FOUNDATION; EITHER VERSION 2 OF THE LICENSE, OR     
# (AT YOUR OPTION) ANY LATER VERSION.                                                    
#                                                                       
# THIS PROGRAM IS DISTRIBUTED IN THE HOPE THAT IT WILL BE USEFUL, BUT   
# WITHOUT ANY WARRANTY; WITHOUT EVEN THE IMPLIED WARRANTY OF            
# MERCHANTABILITY OR FITNESS FOR A PARTICULAR PURPOSE. SEE THE GNU      
# GENERAL PUBLIC LICENSE FOR MORE DETAILS.                              
#                                                                       
# YOU SHOULD HAVE RECEIVED A COPY OF THE GNU GENERAL PUBLIC LICENSE     
# ALONG WITH THIS PROGRAM; IF NOT, WRITE TO EDF R&D CODE_ASTER,         
#    1 AVENUE DU GENERAL DE GAULLE, 92141 CLAMART CEDEX, FRANCE.        
# ======================================================================

DEBUT(CODE=_F(NOM='SSNV195C',NIV_PUB_WEB='INTERNET',),DEBUG=_F(SDVERI='OUI'));

PRE_GIBI();

MAILLE=LIRE_MAILLAGE(INFO=1,);

MAILLE=DEFI_GROUP(reuse = MAILLE,
                  MAILLAGE = MAILLE,
            CREA_GROUP_NO =(
                             _F(
                                NOM = 'H',
                                OPTION = 'ENV_SPHERE',
                                POINT  = (0.0,0.0,50.0),
                                RAYON = 1E-3,
                                PRECISION = 2E-3,
                                ),
                             _F(
                                NOM = 'B',
                                OPTION = 'ENV_SPHERE',
                                POINT  = (0.0,0.0,0.0),
                                RAYON = 1E-3,
                                PRECISION = 2E-3,
                                ),
                             _F(
                                NOM = 'M',
                                OPTION = 'ENV_SPHERE',
                                POINT  = (0.0,0.0,25.0),
                                RAYON = 1E-3,
                                PRECISION = 2E-3,
                                ),   
                            )    
           );


MAILLE=DEFI_GROUP(reuse = MAILLE,
                  MAILLAGE = MAILLE,
            CREA_GROUP_NO =(
                             _F(
                                NOM = 'face_hau',
                                OPTION = 'PLAN',
                                GROUP_NO_CENTRE  = 'H',
                                VECT_NORMALE = (0.0,0.0,1.0),
                                PRECISION = 1E-3,
                                ),
                             _F(
                                NOM = 'face_mil',
                                OPTION = 'PLAN',
                                GROUP_NO_CENTRE  = 'M',
                                VECT_NORMALE = (0.0,0.0,1.0),
                                PRECISION = 1E-3,
                                ),
                             _F(
                                NOM = 'face_bas',
                                OPTION = 'PLAN',
                                GROUP_NO_CENTRE  = 'B',
                                VECT_NORMALE = (0.0,0.0,1.0),
                                PRECISION = 1E-3,
                                ),
#                              _F(GROUP_MA='VOL',),                            
                            )    
           );


MAILLAGE=CREA_MAILLAGE(MAILLAGE=MAILLE,
                       );

MAILLAGE=DEFI_GROUP(reuse =MAILLAGE,
                    MAILLAGE=MAILLAGE,
                    CREA_GROUP_NO=_F(GROUP_MA='VOL',),   
                    );

MAILLAG2=CREA_MAILLAGE(MAILLAGE=MAILLAGE,
                       LINE_QUAD=_F(GROUP_MA='VOL',),);
                       
MODELEIN=AFFE_MODELE(MAILLAGE=MAILLAG2,
                   AFFE=_F(GROUP_MA=('VOL',),
                            PHENOMENE='MECANIQUE',
                            MODELISATION='3D_XFEM_CONT',),
                     );        

PENTE1=0.57735
PENTE2=0.57735
#B1=12.5-2.5*PENTE1
B1=12.-2.*PENTE1
B2=37.5-2.5*PENTE2

LN1=FORMULE(NOM_PARA=('X','Y','Z'),VALE='Z-PENTE1*Y-B1');

LN2=FORMULE(NOM_PARA=('X','Y','Z'),VALE='Z-PENTE2*Y-B2');

     

FISS1=DEFI_FISS_XFEM(MODELE=MODELEIN,  
                    TYPE_DISCONTINUITE='INTERFACE',
                    DEFI_FISS=_F(FONC_LN=LN1),
                    GROUP_MA_ENRI='VOL',);

                    
FISS2=DEFI_FISS_XFEM(MODELE=MODELEIN,  
                    TYPE_DISCONTINUITE='INTERFACE',
                    DEFI_FISS=_F(FONC_LN=LN2),
                    GROUP_MA_ENRI='VOL',);
                    

MODELEK=MODI_MODELE_XFEM(MODELE_IN=MODELEIN,
                         FISSURE=(FISS1,FISS2),
                         CONTACT='OUI',                         
                        );
                        

CTXFEM = DEFI_CONTACT(MODELE         = MODELEK,
                      FORMULATION    = 'XFEM',
                      FROTTEMENT     = 'COULOMB',
                      ITER_CONT_MAXI = 1, 
                      ITER_FROT_MAXI = 6,                    
                      REAC_GEOM      = 'SANS',
                      ZONE=(
                            _F(
                               FISS_MAIT    = FISS1,
                               INTEGRATION  = 'GAUSS',
                               CONTACT_INIT = 'OUI',
                               COEF_ECHELLE = 1.0,
                               ALGO_CONT    = 'STANDARD',
                               COEF_CONT    = 100.,   
                               COULOMB      = 1.0,
                               SEUIL_INIT   = -2.E11,   
                               ALGO_FROT    = 'STANDARD',
                               COEF_FROT    = 1000.,                             ), 
                            _F(
                               FISS_MAIT    = FISS2,
                               INTEGRATION  = 'GAUSS',
                               CONTACT_INIT = 'OUI',
                               COEF_ECHELLE = 1.0,
                               ALGO_CONT    = 'STANDARD',
                               COEF_CONT    = 100.,   
                               COULOMB      = 1.0,
                               SEUIL_INIT   = -2.E11,   
                               ALGO_FROT    = 'STANDARD',
                               COEF_FROT    = 1000.,        
                             ),                              
                         ),
                   );

E=100.0E6
nu=0.
ACIER=DEFI_MATERIAU(ELAS=_F(E=E,
                            NU=nu,
                            RHO=7800.0,),);

CHAMPMAT=AFFE_MATERIAU(MAILLAGE=MAILLAG2,
                       MODELE=MODELEK,
                       AFFE=(_F(GROUP_MA=('VOL',),
                                MATER=ACIER,
                                ),
                             ),);
ZERO=0.0
DEPX=1.E-3
DEPY=2.E-3
DEPZ=3.E-3

CH1=AFFE_CHAR_MECA(MODELE=MODELEK,
                       DDL_IMPO=(
                                 _F(GROUP_NO='face_mil',
                                    DX=ZERO,
                                    DY=ZERO,
                                    DZ=ZERO,
                                    ),
                                 _F(GROUP_NO='face_hau',
                                    DX=ZERO,
                                    DY=ZERO,   
                                    DZ=DEPZ,),
                                 _F(GROUP_NO='face_bas',
                                    DX=ZERO,
                                    DY=ZERO,
                                    DZ=DEPZ,
                                    ),
                                 ),
                       INFO=1,);

CHXFEM=AFFE_CHAR_MECA(MODELE=MODELEK,
                      LIAISON_XFEM='OUI',
                      CONTACT_XFEM=CTXFEM,);

L_INST=DEFI_LIST_REEL(DEBUT=0.0,
                      INTERVALLE=_F(JUSQU_A=1.0,
                                    NOMBRE=1,),);

UTOT1=STAT_NON_LINE(MODELE=MODELEK,
                   CHAM_MATER=CHAMPMAT,              
                   EXCIT=(_F(CHARGE=CH1,),                    
                          _F(CHARGE=CHXFEM,),), 
                   CONTACT  = CTXFEM,                        
                   COMP_ELAS=_F(RELATION='ELAS',
                                GROUP_MA='VOL',),
                   INCREMENT=_F(LIST_INST=L_INST,),
                   SOLVEUR=_F(METHODE='MUMPS',
                               PCENT_PIVOT=10),
                   NEWTON=_F(REAC_ITER=1,),
                   ARCHIVAGE=_F(CHAM_EXCLU='VARI_ELGA',),
                   INFO=2,);

                                
LAG=POST_RELEVE_T(ACTION=_F(INTITULE='DEPLE',
                            NOEUD=( 'N22','N24','N131','NS97','NS100',
                                    'NS111','NS126','NS127','NS136',),
                                RESULTAT=UTOT1,
                                NOM_CHAM='DEPL',
                                NUME_ORDRE=1,
                                NOM_CMP=('LAGS_C','LAGS_F1','LAGS_F2',),
                                OPERATION='EXTRACTION',),);

IMPR_TABLE(TABLE=LAG,
           FORMAT='AGRAF',
           FORMAT_R='1PE12.5',
           FORMAT_C='MODULE_PHASE',
           IMPR_FONCTION='NON',);

DEP_C=POST_RELEVE_T(ACTION=_F(INTITULE='DEPLE',
                              NOEUD=('N45','N49','N53','N57','N61',
                                     'N65','N69', 'N73','N77','N181',),
                                RESULTAT=UTOT1,
                                NOM_CHAM='DEPL',
                                NUME_ORDRE=1,
                                TOUT_CMP='OUI',
                                OPERATION='EXTRACTION',),);

IMPR_TABLE(TABLE=DEP_C,
           FORMAT='AGRAF',
           FORMAT_R='1PE12.5',
           FORMAT_C='MODULE_PHASE',
           IMPR_FONCTION='NON',);

LAREF=-9.E3
LA1REF=0.
LA2REF=0.57735

           
IMPR_RESU(
          MODELE = MODELEK,
          FORMAT = 'RESULTAT',
          RESU = (_F(
                     MAILLAGE = MAILLAG2,
                     RESULTAT = UTOT1, 
                     NOM_CHAM = ('DEPL',
                                 ) ,
           ),),);   
           

DEPMILX=DEPX/2
DEPMILY=DEPY/2
DEPMILZ=DEPZ/2


TEST_TABLE(TABLE=LAG,
           NOM_PARA='LAGS_C',
           TYPE_TEST='MIN',
           VALE=LAREF,
           CRITERE='RELATIF',
           PRECISION=1.E-6,
           REFERENCE='ANALYTIQUE',);

TEST_TABLE(TABLE=LAG,
           NOM_PARA='LAGS_C',
           TYPE_TEST='MIN',
           VALE=LAREF,
           CRITERE='RELATIF',
           PRECISION=1.E-6,
           REFERENCE='ANALYTIQUE',);

TEST_TABLE(TABLE=LAG,
           NOM_PARA='LAGS_F1',
           TYPE_TEST='MAX',
           VALE=LA1REF,
           CRITERE='ABSOLU',
           PRECISION=1.E-12,
           REFERENCE='ANALYTIQUE',);

TEST_TABLE(TABLE=LAG,
           NOM_PARA='LAGS_F1',
           TYPE_TEST='MIN',
           VALE=LA1REF,
           CRITERE='ABSOLU',
           PRECISION=1.E-12,
           REFERENCE='ANALYTIQUE',);

TEST_TABLE(TABLE=LAG,
           NOM_PARA='LAGS_F2',
           TYPE_TEST='MAX',
           VALE=LA2REF,
           CRITERE='RELATIF',
           PRECISION=1.E-12,
           REFERENCE='ANALYTIQUE',);

TEST_TABLE(TABLE=LAG,
           NOM_PARA='LAGS_F2',
           TYPE_TEST='MAX',
           VALE=LA2REF,
           CRITERE='RELATIF',
           PRECISION=1.E-12,
           REFERENCE='ANALYTIQUE',); 

TEST_TABLE(TABLE=DEP_C,
           NOM_PARA='DZ',
           FILTRE=_F(NOM_PARA='NOEUD',
                      VALE_K='N45',),
           VALE=ZERO,
           CRITERE='ABSOLU',
           PRECISION=1.0E-16,
           REFERENCE='ANALYTIQUE',);

TEST_TABLE(TABLE=DEP_C,
           NOM_PARA='DZ',
           FILTRE=_F(NOM_PARA='NOEUD',
                      VALE_K='N49',),
           VALE=ZERO,
           CRITERE='ABSOLU',
           PRECISION=1.0E-16,
           REFERENCE='ANALYTIQUE',);

TEST_TABLE(TABLE=DEP_C,
           NOM_PARA='DZ',
           FILTRE=_F(NOM_PARA='NOEUD',
                      VALE_K='N53',),
           VALE=ZERO,
           CRITERE='ABSOLU',
           PRECISION=1.0E-16,
           REFERENCE='ANALYTIQUE',);
           
TEST_TABLE(TABLE=DEP_C,
           NOM_PARA='DCZ',
           FILTRE=_F(NOM_PARA='NOEUD',
                      VALE_K='N57',),
           VALE=DEPMILZ,
           CRITERE='ABSOLU',
           PRECISION=1.0E-11,
           REFERENCE='ANALYTIQUE',); 

TEST_TABLE(TABLE=DEP_C,
           NOM_PARA='H1Z',
           FILTRE=_F(NOM_PARA='NOEUD',
                      VALE_K='N57',),
           VALE=DEPMILZ,
           CRITERE='ABSOLU',
           PRECISION=1.0E-11,
           REFERENCE='ANALYTIQUE',);
           
TEST_TABLE(TABLE=DEP_C,
           NOM_PARA='DCZ',
           FILTRE=_F(NOM_PARA='NOEUD',
                      VALE_K='N61',),
           VALE=DEPMILZ,
           CRITERE='ABSOLU',
           PRECISION=1.0E-11,
           REFERENCE='ANALYTIQUE',); 

TEST_TABLE(TABLE=DEP_C,
           NOM_PARA='H1Z',
           FILTRE=_F(NOM_PARA='NOEUD',
                      VALE_K='N61',),
           VALE=DEPMILZ,
           CRITERE='ABSOLU',
           PRECISION=1.0E-11,
           REFERENCE='ANALYTIQUE',);

TEST_TABLE(TABLE=DEP_C,
           NOM_PARA='DCZ',
           FILTRE=_F(NOM_PARA='NOEUD',
                      VALE_K='N65',),
           VALE=DEPZ,
           CRITERE='ABSOLU',
           PRECISION=1.0E-11,
           REFERENCE='ANALYTIQUE',); 

TEST_TABLE(TABLE=DEP_C,
           NOM_PARA='H1Z',
           FILTRE=_F(NOM_PARA='NOEUD',
                      VALE_K='N65',),
           VALE=ZERO,
           CRITERE='ABSOLU',
           PRECISION=1.0E-11,
           REFERENCE='ANALYTIQUE',);
           
TEST_TABLE(TABLE=DEP_C,
           NOM_PARA='DZ',
           FILTRE=_F(NOM_PARA='NOEUD',
                      VALE_K='N69',),
           VALE=DEPZ,
           CRITERE='ABSOLU',
           PRECISION=1.0E-11,
           REFERENCE='ANALYTIQUE',);

TEST_TABLE(TABLE=DEP_C,
           NOM_PARA='DZ',
           FILTRE=_F(NOM_PARA='NOEUD',
                      VALE_K='N73',),
           VALE=DEPZ,
           CRITERE='ABSOLU',
           PRECISION=1.0E-11,
           REFERENCE='ANALYTIQUE',);

TEST_TABLE(TABLE=DEP_C,
           NOM_PARA='DZ',
           FILTRE=_F(NOM_PARA='NOEUD',
                      VALE_K='N77',),
           VALE=DEPZ,
           CRITERE='ABSOLU',
           PRECISION=1.0E-11,
           REFERENCE='ANALYTIQUE',);

TEST_TABLE(TABLE=DEP_C,
           NOM_PARA='DZ',
           FILTRE=_F(NOM_PARA='NOEUD',
                      VALE_K='N181',),
           VALE=DEPZ,
           CRITERE='ABSOLU',
           PRECISION=1.0E-11,
           REFERENCE='ANALYTIQUE',);

# -------------------------------------------------------------   
#            POST-TRAITEMENT POUR LA VISUALISATION X-FEM   
# -------------------------------------------------------------   

MA_XFEM=POST_MAIL_XFEM(MAILLAGE_SAIN = MAILLAGE,
                       MODELE        = MODELEK,
                       INFO          = 2)

MOD_VISU=AFFE_MODELE(MAILLAGE=MA_XFEM,
                     AFFE=_F(TOUT='OUI',
                              PHENOMENE='MECANIQUE',
                              MODELISATION='3D',),) 

RES_XFEM=POST_CHAM_XFEM(MAILLAGE_SAIN = MAILLAGE,
                        MAILLAGE_FISS = MA_XFEM,
                        MODELE        = MODELEK,
                        MODELE_VISU   = MOD_VISU,
                        RESULTAT      = UTOT1,
                        NOM_CHAM      = ('DEPL','SIEF_ELGA'),
                        INFO          = 2)
 
#IMPR_RESU(FORMAT='GMSH',UNITE=81,RESU=_F(RESULTAT=RES_XFEM));
FIN();
