# MODIF  DATE 30/07/2012   AUTEUR LEFEBVRE J-P.LEFEBVRE 
# TITRE BLOC DECOUPE PAR DEUX INTERFACES INTERSECTEES AVEC X-FEM
# ssnv511a.para = tps_job 50 mem_job 512Mo ncpus 1 liste_test S
#            CONFIGURATION MANAGEMENT OF EDF VERSION
# ======================================================================
# COPYRIGHT (C) 1991 - 2012  EDF R&D                  WWW.CODE-ASTER.ORG
# THIS PROGRAM IS FREE SOFTWARE; YOU CAN REDISTRIBUTE IT AND/OR MODIFY  
# IT UNDER THE TERMS OF THE GNU GENERAL PUBLIC LICENSE AS PUBLISHED BY  
# THE FREE SOFTWARE FOUNDATION; EITHER VERSION 2 OF THE LICENSE, OR     
# (AT YOUR OPTION) ANY LATER VERSION.                                                    
#                                                                       
# THIS PROGRAM IS DISTRIBUTED IN THE HOPE THAT IT WILL BE USEFUL, BUT   
# WITHOUT ANY WARRANTY; WITHOUT EVEN THE IMPLIED WARRANTY OF            
# MERCHANTABILITY OR FITNESS FOR A PARTICULAR PURPOSE. SEE THE GNU      
# GENERAL PUBLIC LICENSE FOR MORE DETAILS.                              
#                                                                       
# YOU SHOULD HAVE RECEIVED A COPY OF THE GNU GENERAL PUBLIC LICENSE     
# ALONG WITH THIS PROGRAM; IF NOT, WRITE TO EDF R&D CODE_ASTER,         
#    1 AVENUE DU GENERAL DE GAULLE, 92141 CLAMART CEDEX, FRANCE.        
# ======================================================================

# double jonction en X, D_PLAN, QUAD4

DEBUT(CODE=_F(NOM='SSNV511A',NIV_PUB_WEB='INTERNET',),DEBUG=_F(SDVERI='OUI'));

MAILLAG=LIRE_MAILLAGE(FORMAT='MED',INFO=1,);


MODELEIN=AFFE_MODELE(MAILLAGE=MAILLAG,
                     AFFE=(_F(GROUP_MA=('SURF',),
                              PHENOMENE='MECANIQUE',
                              MODELISATION='D_PLAN',),),);

LN1=FORMULE(NOM_PARA=('X','Y'),VALE='Y');

FISS1=DEFI_FISS_XFEM(MODELE=MODELEIN,
                    TYPE_DISCONTINUITE='INTERFACE',
                    DEFI_FISS=_F(FONC_LN=LN1,),
                    INFO=1,);

LN2=FORMULE(NOM_PARA=('X','Y'),VALE='X');

FISS2=DEFI_FISS_XFEM(MODELE=MODELEIN,
                    TYPE_DISCONTINUITE='INTERFACE',
                    DEFI_FISS=_F(FONC_LN=LN2,),
                    JONCTION=_F(FISSURE=FISS1,POINT=(0,5)),
                    INFO=1,);

FISS3=DEFI_FISS_XFEM(MODELE=MODELEIN,
                    TYPE_DISCONTINUITE='INTERFACE',
                    DEFI_FISS=_F(FONC_LN=LN2,),
                    JONCTION=_F(FISSURE=FISS1,POINT=(0,-5)),
                    INFO=1,);

MODELEK=MODI_MODELE_XFEM(MODELE_IN=MODELEIN,
                         FISSURE=(FISS1,FISS2,FISS3,),
                         INFO=1,);


E=100.0E6
nu=0.3
ACIER=DEFI_MATERIAU(ELAS=_F(E=E,
                            NU=nu,
                            RHO=7800.0,),);

CHAMPMAT=AFFE_MATERIAU(MAILLAGE=MAILLAG,
                       MODELE=MODELEK,
                       AFFE=_F(TOUT=('OUI',),
                                MATER=ACIER,
                                ),);



def depx(x,y) :
   if y  > 0 and x < 0:  return  -0.25
   if y  < 0 and x < 0:  return  -0.5
   if y  > 0 and x > 0:  return  0.75
   if y  < 0 and x > 0:  return  1
   return 0.

def depy(x) :
   return 0.

DEPL_X = FORMULE(VALE='depx(X,Y)',
                  NOM_PARA=('X','Y',),);
DEPL_Y = FORMULE(VALE='depy(X)',
                  NOM_PARA=('X',),);

CH1=AFFE_CHAR_MECA_F(MODELE=MODELEK,
                   DDL_IMPO=(_F(GROUP_MA=('LD','LG'),DX= DEPL_X,DY= DEPL_Y),),
                   INFO=1,);


UTOT1=MECA_STATIQUE(MODELE=MODELEK,
                   CHAM_MATER=CHAMPMAT,
                   EXCIT=(
                          _F(CHARGE=CH1),
                          ),
                   INFO=1,
                   ); 
#-----------------------------------------------------------
#             POST-TRAITEMENT POUR LA VISUALISATION
#-----------------------------------------------------------

MA_XFEM=POST_MAIL_XFEM(MODELE=MODELEK);

MOD_VISU=AFFE_MODELE(MAILLAGE=MA_XFEM,
                     AFFE=_F(TOUT='OUI',
                     PHENOMENE='MECANIQUE',
                     MODELISATION='D_PLAN',),)

RES_XFEM=POST_CHAM_XFEM(MODELE_VISU   = MOD_VISU,
                        RESULTAT      = UTOT1,)

#----------------------------------------------
#                   POST RELEVE
#----------------------------------------------

DEP=POST_RELEVE_T(ACTION=_F(INTITULE='DEPLE',
                                 GROUP_NO=('NFISSU',),
                                 RESULTAT=RES_XFEM,
                                 NOM_CHAM='DEPL',
                                 NUME_ORDRE = 1,
                                 TOUT_CMP='OUI',
                                 OPERATION='EXTRACTION',),);
DEP = CALC_TABLE(TABLE = DEP,
                 reuse = DEP,
                 ACTION =_F(OPERATION = 'EXTR',
                            NOM_PARA=('NOEUD','COOR_X','COOR_Y','DX','DY'),),);

DEPP = CALC_TABLE(TABLE = DEP,
                     ACTION =(_F(OPERATION = 'FILTRE',
                                 NOM_PARA  = 'NOEUD',
                                 CRIT_COMP = 'REGEXP',
                                 VALE_K    = 'NP',),),);

DEPPGX = CALC_TABLE(TABLE = DEPP,
                      ACTION =_F(OPERATION = 'FILTRE',
                                 NOM_PARA  = 'COOR_X',
                                 CRIT_COMP = 'GT',
                                 VALE      =  0.02,),);
DEPPLX = CALC_TABLE(TABLE = DEPP,
                      ACTION =_F(OPERATION = 'FILTRE',
                                 NOM_PARA  = 'COOR_X',
                                 CRIT_COMP = 'LT',
                                 VALE      =  -0.02,),);
DEPPGY = CALC_TABLE(TABLE = DEPP,
                      ACTION =_F(OPERATION = 'FILTRE',
                                 NOM_PARA  = 'COOR_Y',
                                 CRIT_COMP = 'GT',
                                 VALE      =  0.02,),);
DEPPLY = CALC_TABLE(TABLE = DEPP,
                      ACTION =_F(OPERATION = 'FILTRE',
                                 NOM_PARA  = 'COOR_Y',
                                 CRIT_COMP = 'LT',
                                 VALE      =  -0.02,),);

DEPM = CALC_TABLE(TABLE = DEP,
                     ACTION =(_F(OPERATION = 'FILTRE',
                                 NOM_PARA  = 'NOEUD',
                                 CRIT_COMP = 'REGEXP',
                                 VALE_K    = 'NM',),),);
DEPMGX = CALC_TABLE(TABLE = DEPM,
                      ACTION =_F(OPERATION = 'FILTRE',
                                 NOM_PARA  = 'COOR_X',
                                 CRIT_COMP = 'GT',
                                 VALE      =  0.02,),);
DEPMLX = CALC_TABLE(TABLE = DEPM,
                      ACTION =_F(OPERATION = 'FILTRE',
                                 NOM_PARA  = 'COOR_X',
                                 CRIT_COMP = 'LT',
                                 VALE      =  -0.02,),);
DEPMGY = CALC_TABLE(TABLE = DEPM,
                      ACTION =_F(OPERATION = 'FILTRE',
                                 NOM_PARA  = 'COOR_Y',
                                 CRIT_COMP = 'GT',
                                 VALE      =  0.02,),);
DEPMLY = CALC_TABLE(TABLE = DEPM,
                      ACTION =_F(OPERATION = 'FILTRE',
                                 NOM_PARA  = 'COOR_Y',
                                 CRIT_COMP = 'LT',
                                 VALE      =  -0.02,),);

# Definition des zones

DEPZON=[None]*5
DEPZON[1] = CALC_TABLE(TABLE = DEPMGY,
                    ACTION =_F(OPERATION = 'COMB',
                               TABLE=DEPPLX,),);
DEPZON[3] = CALC_TABLE(TABLE = DEPPGX,
                    ACTION =_F(OPERATION = 'COMB',
                               TABLE=DEPPGY,),);
DEPZON[2] = CALC_TABLE(TABLE = DEPMLX,
                    ACTION =_F(OPERATION = 'COMB',
                               TABLE=DEPMLY,),);
DEPZON[4] = CALC_TABLE(TABLE = DEPPLY,
                    ACTION =_F(OPERATION = 'COMB',
                               TABLE=DEPMGX,),);

#----------------------------------------------
#                   TEST TABLE
#----------------------------------------------

vale = [0,-0.25,-0.5,0.75,1]
preci = 10e-14

for i in [1,2,3,4]: #Boucle sur les zones

  IMPR_TABLE(TABLE=DEPZON[i],);

  TEST_TABLE(TABLE=DEPZON[i],
             NOM_PARA='DX',
             TYPE_TEST='MIN',
             VALE=vale[i],
             CRITERE='RELATIF',
             PRECISION=preci,
             REFERENCE='ANALYTIQUE',);
  TEST_TABLE(TABLE=DEPZON[i],
             NOM_PARA='DX',
             TYPE_TEST='MAX',
             VALE=vale[i],
             CRITERE='RELATIF',
             PRECISION=preci,
             REFERENCE='ANALYTIQUE',);
  TEST_TABLE(TABLE=DEPZON[i],
             NOM_PARA='DY',
             TYPE_TEST='MIN',
             VALE=0,
             CRITERE='ABSOLU',
             PRECISION=preci,
             REFERENCE='ANALYTIQUE',);
  TEST_TABLE(TABLE=DEPZON[i],
             NOM_PARA='DY',
             TYPE_TEST='MAX',
             VALE=0,
             CRITERE='ABSOLU',
             PRECISION=preci,
             REFERENCE='ANALYTIQUE',);

FIN();                  
