# TITRE INDENTATION ELASTOPLASTIQUE D'UN DEMI-PLAN
# ======================================================================
# COPYRIGHT (C) 1991 - 2012  EDF R&D                  WWW.CODE-ASTER.ORG
# THIS PROGRAM IS FREE SOFTWARE; YOU CAN REDISTRIBUTE IT AND/OR MODIFY
# IT UNDER THE TERMS OF THE GNU GENERAL PUBLIC LICENSE AS PUBLISHED BY
# THE FREE SOFTWARE FOUNDATION; EITHER VERSION 2 OF THE LICENSE, OR
# (AT YOUR OPTION) ANY LATER VERSION.
#
# THIS PROGRAM IS DISTRIBUTED IN THE HOPE THAT IT WILL BE USEFUL, BUT
# WITHOUT ANY WARRANTY; WITHOUT EVEN THE IMPLIED WARRANTY OF
# MERCHANTABILITY OR FITNESS FOR A PARTICULAR PURPOSE. SEE THE GNU
# GENERAL PUBLIC LICENSE FOR MORE DETAILS.
#
# YOU SHOULD HAVE RECEIVED A COPY OF THE GNU GENERAL PUBLIC LICENSE
# ALONG WITH THIS PROGRAM; IF NOT, WRITE TO EDF R&D CODE_ASTER,
#    1 AVENUE DU GENERAL DE GAULLE, 92141 CLAMART CEDEX, FRANCE.
# ======================================================================
#  PAR UN INDENTEUR SPHERIQUE ELASTIQUE
# CAS TEST  SSNV506C
#  MAILLAGE EN MM
#  METHODE DES CONTRAINTES ACTIVES EN 3D
# SPHERE RIGIDE MODELISER UNIQUEMENT PAR LA SURFACE DE CONTACT


DEBUT(CODE=_F(NIV_PUB_WEB='INTERNET'),
      IGNORE_ALARM=('MODELE1_63'),DEBUG=_F(SDVERI='OUI'));

# <MODELE1_63> : DANS UN MODELE, IL EXISTE DES ELEMENTS DE TYPE "BORD" QUI N'ONT PAS DE VOISIN AVEC RIGIDITE
#  LE MODELE PROVOQUANT CES ALARMES CONTIENT UNE SURFACE RIGIDE POUR LE CONTACT

#-------------------------------------------------------------------
#                      LECTURE MAILLAGE SSNV506C.MMED
#-------------------------------------------------------------------


MA=LIRE_MAILLAGE(INFO=1,FORMAT='MED');

SSNV506C=CREA_MAILLAGE(MAILLAGE=MA,
                       RESTREINT=_F( GROUP_MA=('BATI',
                                               'BASE',
                                               'SBXY',
                                               'SBYZ',
                                               'SESC',
                                               'SMAI',
                                               ),
                                     GROUP_NO=('S',
                                               'E'),
                                    ),
                      )

#--------------------------------------------------------------------
#                     DEFINITION DU MODELE
#--------------------------------------------------------------------

SSNV506C=DEFI_GROUP(reuse =SSNV506C,
                    MAILLAGE=SSNV506C,
                    CREA_GROUP_NO=(_F(TOUT_GROUP_MA='OUI',), ),);

MO=AFFE_MODELE(MAILLAGE=SSNV506C,
               AFFE=_F(TOUT='OUI',
                       PHENOMENE='MECANIQUE',
                       MODELISATION='3D',),);

# REORENTATION DES NORMALES DES SURFACES DE CONTACT
SSNV506C=MODI_MAILLAGE(reuse =SSNV506C,
                       MAILLAGE=SSNV506C,
                       ORIE_PEAU_3D=_F(GROUP_MA='SESC',),
                       INFO=1,);

SSNV506C=MODI_MAILLAGE(reuse =SSNV506C,
                       MAILLAGE=SSNV506C,
                       ORIE_NORM_COQUE=_F(GROUP_MA='SMAI',
                                          VECT_NORM=(0.0,-1.0,0.0),
                                          GROUP_NO='E',),
                       INFO=1,);

#----------------------------------------------------------------------
#                      DEFINITION DES MATERIAUX
#----------------------------------------------------------------------

MSPH=DEFI_MATERIAU(ELAS=_F(E=210000,
                           NU=0.29999999999999999,),);

MBATI=DEFI_MATERIAU(ELAS=_F(E=210000,
                            NU=0.29999999999999999,),
                    ECRO_LINE=_F(D_SIGM_EPSI=0.0,
                                 SY=50.0,),);

CHMAT=AFFE_MATERIAU(MAILLAGE=SSNV506C,
                    AFFE=(_F(GROUP_MA='SMAI',
                             MATER=MSPH,),
                          _F(GROUP_MA='BATI',
                             MATER=MBATI,),),);

#----------------------------------------------------------------------
#              DEFINITION DES PARAMETRES DE CHARGEMENT
#----------------------------------------------------------------------

RAMPE=DEFI_FONCTION(NOM_PARA='INST',
                    VALE=(0.0,0.0,
                          1.0,1.0,),
                    PROL_DROITE='LINEAIRE',
                    PROL_GAUCHE='LINEAIRE',);

LINST=DEFI_LIST_REEL(DEBUT=0.0,
                     INTERVALLE=(_F(JUSQU_A=0.01,
                                    NOMBRE=2,),
                                 _F(JUSQU_A=0.1,
                                    NOMBRE=9,),
                                 _F(JUSQU_A=1.0,
                                    NOMBRE=18,),),);

#---------------------------------------------------------------------
#              AFFECTATION DES CONDITIONS AUX LIMITES
#                     ET DU DEPLACEMENT IMPOSE
#---------------------------------------------------------------------

DPLIMPO=AFFE_CHAR_MECA(MODELE=MO,
                       DDL_IMPO=(_F(GROUP_NO='SMAI',
                                    DX=0.,DY=-100.,DZ=0.,),
                                 _F(GROUP_NO='BASE',
                                    DX=0.,DY=0.,DZ=0.,),
                                 _F(GROUP_NO=('SBYZ'),
                                    DX=0.,),
                                 _F(GROUP_NO=('SBXY'),
                                    DZ=0.,),),
                       LIAISON_DDL=_F(GROUP_NO=('S','E'),
                                      DDL=('DY','DY'),
                                      COEF_MULT=(1.0,-1.0),
                                      COEF_IMPO=0.,),);

CONT = DEFI_CONTACT(MODELE=MO,
                    FORMULATION='DISCRETE',
                    ZONE=_F(
                      GROUP_MA_MAIT='SMAI',
                      GROUP_MA_ESCL='SESC',
                      SANS_GROUP_NO=('E','S'),

                    ),
                    )

#----------------------------------------------------------------------
#                         RESOLUTION
#----------------------------------------------------------------------

DEFLIST =DEFI_LIST_INST(DEFI_LIST=_F(LIST_INST = LINST),
                        ECHEC=_F(ACTION        = 'DECOUPE',
                                 SUBD_METHODE  = 'MANUEL',
                                 SUBD_PAS=4,
                                 SUBD_PAS_MINI=9.9999999999999995E-07,),)

SSNV506=STAT_NON_LINE(SOLVEUR=_F(SYME='OUI',),
                      MODELE=MO,
                       CHAM_MATER=CHMAT,
                       CONTACT = CONT,
                       EXCIT=(_F(CHARGE=DPLIMPO,
                                 FONC_MULT=RAMPE,),
                              ),
                       COMPORTEMENT=(_F(RELATION='VMIS_ISOT_LINE',
                                    GROUP_MA='BATI'),
                                    _F(RELATION='ELAS',
                                    GROUP_MA='SMAI',),),
                       INCREMENT=_F(LIST_INST=DEFLIST,
                                    #INST_FIN=0.1,
                                    ),
                       NEWTON=_F(MATRICE='TANGENTE',
                                 REAC_ITER=3,
                                 ),
                       CONVERGENCE=_F(RESI_GLOB_RELA=9.9999999999999995E-07,
                                      ITER_GLOB_MAXI=15,
                                      ARRET='OUI',),
                       INFO=1,);

#----------------------------------------------------------------------
#                         POST TRAITEMENT
#----------------------------------------------------------------------

SSNV506=CALC_CHAMP(reuse =SSNV506,
                 RESULTAT=SSNV506,
                 FORCE='REAC_NODA',
                 );


TAB_REAC=POST_RELEVE_T(ACTION=_F(INTITULE='FORCE',
                                 GROUP_NO='SESC',
                                 RESULTAT=SSNV506,
                                 NOM_CHAM='REAC_NODA',
                                 LIST_INST=LINST,
                                 RESULTANTE='DY',
                                 OPERATION = 'EXTRACTION'),);

IMPR_TABLE(TABLE=TAB_REAC,
           FORMAT='TABLEAU',);


#----------------------------------------------------------------------
#                   TESTS DES RESULTATS
#----------------------------------------------------------------------
# TESTS SUR DES VALEURS ANALYTIQUES
TEST_TABLE(REFERENCE='ANALYTIQUE',
           PRECISION=1.E-2,
           VALE_CALC=-3.2100211525424E+06,
           VALE_REFE=-3.201351E6,
           NOM_PARA='DY',
           TABLE=TAB_REAC,
           FILTRE=_F(NOM_PARA='INST',
                     VALE=0.2,),
           )

TEST_TABLE(REFERENCE='ANALYTIQUE',
           PRECISION=0.05,
           VALE_CALC=-6.1671049051535E+06,
           VALE_REFE=-6.402702E6,
           NOM_PARA='DY',
           TABLE=TAB_REAC,
           FILTRE=_F(NOM_PARA='INST',
                     VALE=0.4,),
           )

TEST_TABLE(REFERENCE='ANALYTIQUE',
           PRECISION=0.05,
           VALE_CALC=-9.1689400243108E+06,
           VALE_REFE=-9.604053E6,
           NOM_PARA='DY',
           TABLE=TAB_REAC,
           FILTRE=_F(NOM_PARA='INST',
                     VALE=0.6,),
           )

TEST_TABLE(REFERENCE='ANALYTIQUE',
           PRECISION=0.1,
           VALE_CALC=-1.173889113011E+07,
           VALE_REFE=-1.2805400E7,
           NOM_PARA='DY',
           TABLE=TAB_REAC,
           FILTRE=_F(NOM_PARA='INST',
                     VALE=0.8,),
           )

TEST_TABLE(REFERENCE='ANALYTIQUE',
           PRECISION=0.12,
           VALE_CALC=-1.4244367076474E+07,
           VALE_REFE=-1.6006750E7,
           NOM_PARA='DY',
           TABLE=TAB_REAC,
           FILTRE=_F(NOM_PARA='INST',
                     VALE=1.0,),
           )

FIN();
