# TITRE    : PATIN GLISSANT SUR UN PLAN RIGIDE
#            CONFIGURATION MANAGEMENT OF EDF VERSION
# ======================================================================
# COPYRIGHT (C) 1991 - 2013  EDF R&D                  WWW.CODE-ASTER.ORG
# THIS PROGRAM IS FREE SOFTWARE; YOU CAN REDISTRIBUTE IT AND/OR MODIFY
# IT UNDER THE TERMS OF THE GNU GENERAL PUBLIC LICENSE AS PUBLISHED BY
# THE FREE SOFTWARE FOUNDATION; EITHER VERSION 2 OF THE LICENSE, OR
# (AT YOUR OPTION) ANY LATER VERSION.
#
# THIS PROGRAM IS DISTRIBUTED IN THE HOPE THAT IT WILL BE USEFUL, BUT
# WITHOUT ANY WARRANTY; WITHOUT EVEN THE IMPLIED WARRANTY OF
# MERCHANTABILITY OR FITNESS FOR A PARTICULAR PURPOSE. SEE THE GNU
# GENERAL PUBLIC LICENSE FOR MORE DETAILS.
#
# YOU SHOULD HAVE RECEIVED A COPY OF THE GNU GENERAL PUBLIC LICENSE
# ALONG WITH THIS PROGRAM; IF NOT, WRITE TO EDF R&D CODE_ASTER,
#    1 AVENUE DU GENERAL DE GAULLE, 92141 CLAMART CEDEX, FRANCE.
# ======================================================================


DEBUT(CODE=_F(NOM='SSNV503J', NIV_PUB_WEB='INTERNET'), DEBUG=_F(SDVERI='OUI'))

MA_0=LIRE_MAILLAGE(VERI_MAIL=_F(VERIF='OUI'),FORMAT='MED');

MA_0=DEFI_GROUP(reuse =MA_0,
                 MAILLAGE=MA_0,
                 CREA_GROUP_NO = (
                        _F(
                           NOM = 'BJOI',
                           GROUP_MA = 'LJOI',
                           OPTION = 'NOEUD_ORDO',
                           GROUP_NO_ORIG = 'H2',
                           GROUP_NO_EXTR = 'H3'),
                        _F(
                           NOM = 'HJOI',
                           GROUP_MA = 'LESC',
                           OPTION = 'NOEUD_ORDO',
                           GROUP_NO_ORIG = 'A',
                           GROUP_NO_EXTR = 'B'),
                       # _F(TOUT_GROUP_MA='OUI'),
                       )
                 );


MAILL = CREA_MAILLAGE(
  MAILLAGE = MA_0,
  CREA_FISS = _F(
    NOM = 'FISS',
    GROUP_NO_2 = 'HJOI',
    GROUP_NO_1 = 'BJOI',
    PREF_MAILLE = 'MJ',
    )
  )



MAILL=DEFI_GROUP(reuse =MAILL,
                 MAILLAGE=MAILL,
                 CREA_GROUP_NO=_F(TOUT_GROUP_MA='OUI'));

MODE=AFFE_MODELE(MAILLAGE=MAILL,
                 VERIF='MAILLE',
                 AFFE=(_F(TOUT='OUI',
                          PHENOMENE='MECANIQUE',
                          MODELISATION='D_PLAN'),
                       _F(GROUP_MA='RES_LAT',
                          PHENOMENE='MECANIQUE',
                          MODELISATION='2D_DIS_T'),
                       _F(GROUP_MA='RES_HAUT',
                          PHENOMENE='MECANIQUE',
                          MODELISATION='2D_DIS_T'),
                       _F(
                         GROUP_MA     = 'FISS',
                         PHENOMENE    = 'MECANIQUE',
                         MODELISATION = 'PLAN_JOINT'
                         ),
                      ),

 );

#---------------------------------------------------------------------
#                         CARACTERISTIQUES ELEMENTAIRES
#---------------------------------------------------------------------

CARA=AFFE_CARA_ELEM(MODELE=MODE,
                    DISCRET_2D=(_F(GROUP_MA='RES_LAT',
                                   REPERE='LOCAL',
                                   CARA='K_T_D_L',
                                   VALE=(2.0,0.0)),
                                _F(GROUP_MA='RES_HAUT',
                                   REPERE='LOCAL',
                                   CARA='K_T_D_L',
                                   VALE=(0.005,0.0)),
                              ));

#---------------------------------------------------------------------
#                         CARACTERISTIQUES MATERIAUX
#---------------------------------------------------------------------

MPATIN=DEFI_MATERIAU(ELAS=_F(E=2.10000E5,
                             NU=0.0));

MBATI=DEFI_MATERIAU(ELAS=_F(E=1.E5,
                            NU=0.0));

# MATERIAU JOINT MECANIQUE AVEC FROTTEMENT
k_n=1.E5
MAT_JF=DEFI_MATERIAU(
                  JOINT_MECA_FROT=_F(K_N=k_n,
                                     MU=0.3,
                                ));

CM=AFFE_MATERIAU(MAILLAGE=MAILL,
                 MODELE=MODE,
                 AFFE=(_F(GROUP_MA='PATIN',
                          MATER=MPATIN),
                       _F(GROUP_MA='BATI',
                          MATER=MBATI),
                        _F(GROUP_MA='FISS',
                          MATER=MAT_JF),
                       ));
#---------------------------------------------------------------------
#                         CHARGEMENTS
#---------------------------------------------------------------------

# CONDITIONS AUX LIMITES
COND_LIM=AFFE_CHAR_MECA(MODELE=MODE,
                        DDL_IMPO=(_F(GROUP_NO='BATI',
                                     DX=0.0,DY=0.0),
                                  _F(GROUP_NO=('R1','R2','X','Y'),
                                     DX=0.0,DY=0.0)));

# CHARGEMENT 1 : APPLICATION DE LA PRESSION NORMALE
PNOR=AFFE_CHAR_MECA(MODELE=MODE,
                    PRES_REP=_F(GROUP_MA='FACESUP',
                                PRES=300.0));

# CHARGEMENT 2 : APPLICATION DE LA PRESSION NORMALE ET DE LA PRESSION
#                  TANGENTIELLE (PT=0.3*PN*0.99)
PTAN_99=AFFE_CHAR_MECA(MODELE=MODE,
                       PRES_REP=_F(GROUP_MA='FACELAT',
                                   PRES=178.19999999999999));

# CHARGEMENT 3 : APPLICATION DE LA PRESSION NORMALE ET DE LA PRESSION
#                  TANGENTIELLE (PT=0.3*PN*1.01)
PTAN_101=AFFE_CHAR_MECA(MODELE=MODE,
                        PRES_REP=_F(GROUP_MA='FACELAT',
                                    PRES=181.80000000000001));


#---------------------------------------------------------------------
#                         RESOLUTION
#---------------------------------------------------------------------


RAMPE=DEFI_FONCTION(NOM_PARA='INST',
                    VALE=(0.0,0.0,
                          1.0,1.0),
                    PROL_DROITE='LINEAIRE',
                    PROL_GAUCHE='LINEAIRE');

L_INST=DEFI_LIST_REEL(DEBUT=0.0,
                      INTERVALLE=_F(JUSQU_A=1.0,
                                    NOMBRE=2));


# CHARGEMENT 1
U_NOR=STAT_NON_LINE(MODELE=MODE,
                    CHAM_MATER=CM,
                    CARA_ELEM=CARA,
                    EXCIT=(_F(CHARGE=PNOR,
                              FONC_MULT=RAMPE),
                           _F(CHARGE=COND_LIM)),
                    COMP_INCR=(_F(RELATION='ELAS',
                                 GROUP_MA=('BATI','PATIN')),
                               _F(RELATION = 'JOINT_MECA_FROT',
                                   GROUP_MA = 'FISS'),
                               ),
                    INCREMENT=_F(LIST_INST=L_INST),
                    NEWTON=_F(MATRICE='TANGENTE',
                              REAC_ITER=1),
                    SOLVEUR=_F(METHODE='MUMPS',
   
                              ),
                    CONVERGENCE=_F(ITER_GLOB_MAXI=30),
                    );

U_NOR=CALC_CHAMP(reuse =U_NOR,
              RESULTAT=U_NOR,
              FORCE='REAC_NODA',

              );

# CHARGEMENT 2
U_99=STAT_NON_LINE(MODELE=MODE,
                   CHAM_MATER=CM,
                   CARA_ELEM=CARA,
                   EXCIT=(_F(CHARGE=PNOR,
                             FONC_MULT=RAMPE),
                          _F(CHARGE=PTAN_99,
                             FONC_MULT=RAMPE),
                          _F(CHARGE=COND_LIM)),
                    COMP_INCR=(_F(RELATION='ELAS',
                                 GROUP_MA=('BATI','PATIN')),
                               _F(RELATION = 'JOINT_MECA_FROT',
                                   GROUP_MA = 'FISS'),
                               ),
                    INCREMENT=_F(LIST_INST=L_INST),
                    NEWTON=_F(MATRICE='TANGENTE',
                              REAC_ITER=1),
                    SOLVEUR=_F(METHODE='MUMPS',
   
                              ),
                    CONVERGENCE=_F(ITER_GLOB_MAXI=30),
                    );

U_99=CALC_CHAMP(reuse =U_99,
             RESULTAT=U_99,
             FORCE='REAC_NODA',

              );

# CHARGEMENT 3
U_101=STAT_NON_LINE(MODELE=MODE,
                    CHAM_MATER=CM,
                    CARA_ELEM=CARA,
                    EXCIT=(_F(CHARGE=PNOR,
                              FONC_MULT=RAMPE),
                           _F(CHARGE=PTAN_101,
                              FONC_MULT=RAMPE),
                           _F(CHARGE=COND_LIM)),
                    COMP_INCR=(_F(RELATION='ELAS',
                                 GROUP_MA=('BATI','PATIN')),
                               _F(RELATION = 'JOINT_MECA_FROT',
                                   GROUP_MA = 'FISS'),
                               ),
                    INCREMENT=_F(LIST_INST=L_INST),
                    NEWTON=_F(MATRICE='TANGENTE',
                              REAC_ITER=1),
                    SOLVEUR=_F(METHODE='MUMPS',
   
                              ),
                    CONVERGENCE=_F(ITER_GLOB_MAXI=30),
                    );

U_101=CALC_CHAMP(reuse =U_101,
              RESULTAT=U_101,
              FORCE='REAC_NODA',

              );


#---------------------------------------------------------------------
#                         VERIFICATION DES RESULTATS
#---------------------------------------------------------------------

# CHARGEMENT 1
TEST_RESU(RESU=(_F(GROUP_NO='A',
                   INST=1.0,
                   REFERENCE='ANALYTIQUE',
                   RESULTAT=U_NOR,
                   NOM_CHAM='DEPL',
                   NOM_CMP='DX',
                   VALE_CALC= 1.49999991E-03,
                   VALE_REFE=150./k_n,
                   PRECISION=1.E-2,
                   ),
                _F(GROUP_NO='A',
                   INST=1.0,
                   REFERENCE='ANALYTIQUE',
                   RESULTAT=U_NOR,
                   NOM_CHAM='DEPL',
                   NOM_CMP='DY',
                   VALE_CALC=-2.59807612E-03,
                   VALE_REFE=-sqrt(3)*150./k_n,
                   PRECISION=1.E-2,
                   ),
                _F(GROUP_NO='B',
                   INST=1.0,
                   REFERENCE='ANALYTIQUE',
                   RESULTAT=U_NOR,
                   NOM_CHAM='DEPL',
                   NOM_CMP='DX',
                   VALE_CALC= 1.49999997E-03,
                   VALE_REFE=150./k_n,
                   PRECISION=1.E-2,
                   ),
                _F(GROUP_NO='B',
                   INST=1.0,
                   REFERENCE='ANALYTIQUE',
                   RESULTAT=U_NOR,
                   NOM_CHAM='DEPL',
                   NOM_CMP='DY',
                   VALE_CALC=-2.59807609E-03,
                   VALE_REFE=-sqrt(3)*150./k_n,
                   PRECISION=1.E-2,
                   ),
                ),
          )

TU_NOR=POST_RELEVE_T(ACTION=_F(INTITULE='FORCE',
                               GROUP_NO='LMAI',
                               RESULTAT=U_NOR,
                               NOM_CHAM='REAC_NODA',
                               NOM_CMP=('DX','DY'),
                               REPERE='LOCAL',
                               OPERATION='EXTRACTION',
                               INST=1.));

TEST_TABLE(REFERENCE='ANALYTIQUE',
           PRECISION=0.050000000000000003,
           VALE_CALC=-1.19999997E+04,
           VALE_REFE=-1.2000E4,
           NOM_PARA='DY',
           TYPE_TEST='SOMM',
           TABLE=TU_NOR,)

TEST_TABLE(CRITERE='ABSOLU',
           REFERENCE='ANALYTIQUE',
           PRECISION=0.050000000000000003,
           VALE_CALC= 3.43970496E-09,
           VALE_REFE=0.0,
           NOM_PARA='DX',
           TYPE_TEST='SOMM',
           TABLE=TU_NOR,)

# CHARGEMENT 2
TEST_RESU(RESU=(_F(GROUP_NO='A',
                   INST=1.0,
                   REFERENCE='NON_DEFINI',
                   RESULTAT=U_99,
                   NOM_CHAM='DEPL',
                   NOM_CMP='DX',
                   VALE_CALC=0.023361526,
                   VALE_REFE=0.023400000000000001,
                   PRECISION=1.E-2,
                   ),
                _F(GROUP_NO='A',
                   INST=1.0,
                   REFERENCE='NON_DEFINI',
                   RESULTAT=U_99,
                   NOM_CHAM='DEPL',
                   NOM_CMP='DY',
                   VALE_CALC=0.012204441,
                   VALE_REFE=0.012200000000000001,
                   PRECISION=1.E-2,
                   ),
                _F(GROUP_NO='B',
                   INST=1.0,
                   REFERENCE='NON_DEFINI',
                   RESULTAT=U_99,
                   NOM_CHAM='DEPL',
                   NOM_CMP='DX',
                   VALE_CALC= 4.03230056E-03,
                   VALE_REFE=4.032E-3,
                   PRECISION=1.E-2,
                   ),
                _F(GROUP_NO='B',
                   INST=1.0,
                   REFERENCE='NON_DEFINI',
                   RESULTAT=U_99,
                   NOM_CHAM='DEPL',
                   NOM_CMP='DY',
                   VALE_CALC=-4.74691083E-03,
                   VALE_REFE=-4.7470000000000004E-3,
                   PRECISION=1.E-2,
                   ),
                ),
          )

TU_99=POST_RELEVE_T(ACTION=_F(INTITULE='FORCE',
                              GROUP_NO='LMAI',
                              RESULTAT=U_99,
                              NOM_CHAM='REAC_NODA',
                              NOM_CMP=('DX','DY'),
                              REPERE='LOCAL',
                              OPERATION='EXTRACTION',
                              INST=1.));

TEST_TABLE(REFERENCE='ANALYTIQUE',
           PRECISION=1.E-2,
           VALE_CALC=-1.19999997E+04,
           VALE_REFE=-1.2000E4,
           NOM_PARA='DY',
           TYPE_TEST='SOMM',
           TABLE=TU_99,)

TEST_TABLE(REFERENCE='ANALYTIQUE',
           PRECISION=1.E-2,
           VALE_CALC= 3.56395197E+03,
           VALE_REFE=3564.0,
           NOM_PARA='DX',
           TYPE_TEST='SOMM',
           TABLE=TU_99,)

# CHARGEMENT 3
TEST_RESU(RESU=(_F(GROUP_NO='A',
                   INST=1.0,
                   REFERENCE='ANALYTIQUE',
                   RESULTAT=U_101,
                   NOM_CHAM='DEPL',
                   NOM_CMP='DX',
                   VALE_CALC=2.611724343,
                   VALE_REFE=sqrt(3)*1.5,
                   PRECISION=1.E-2,
                   ),
                _F(GROUP_NO='A',
                   INST=1.0,
                   REFERENCE='ANALYTIQUE',
                   RESULTAT=U_101,
                   NOM_CHAM='DEPL',
                   NOM_CMP='DY',
                   VALE_CALC=1.506612835,
                   VALE_REFE=1.5,
                   PRECISION=1.E-2,
                   ),
                _F(GROUP_NO='B',
                   INST=1.0,
                   REFERENCE='ANALYTIQUE',
                   RESULTAT=U_101,
                   NOM_CHAM='DEPL',
                   NOM_CMP='DX',
                   VALE_CALC=2.591371609,
                   VALE_REFE=sqrt(3)*1.5,
                   PRECISION=1.E-2,
                   ),
                _F(GROUP_NO='B',
                   INST=1.0,
                   REFERENCE='ANALYTIQUE',
                   RESULTAT=U_101,
                   NOM_CHAM='DEPL',
                   NOM_CMP='DY',
                   VALE_CALC=1.488888917,
                   VALE_REFE=1.5,
                   PRECISION=1.E-2,
                   ),
                ),
          )

TU_101=POST_RELEVE_T(ACTION=_F(INTITULE='FORCE',
                               GROUP_NO='LMAI',
                               RESULTAT=U_101,
                               NOM_CHAM='REAC_NODA',
                               NOM_CMP=('DX','DY'),
                               REPERE='LOCAL',
                               OPERATION='EXTRACTION',
                               INST=1.));

TEST_TABLE(REFERENCE='ANALYTIQUE',
           PRECISION=1.E-2,
           VALE_CALC=-1.19999997E+04,
           VALE_REFE=-1.2000E4,
           NOM_PARA='DY',
           TYPE_TEST='SOMM',
           TABLE=TU_101,)

TEST_TABLE(REFERENCE='ANALYTIQUE',
           PRECISION=1.E-2,
           VALE_CALC= 3.62400003E+03,
           VALE_REFE=3624.0,
           NOM_PARA='DX',
           TYPE_TEST='SOMM',
           TABLE=TU_101,)

FIN();
