#
# TITRE CONTACT DE DEUX SPHERES
#            CONFIGURATION MANAGEMENT OF EDF VERSION
# ======================================================================
# COPYRIGHT (C) 1991 - 2012  EDF R&D                  WWW.CODE-ASTER.ORG
#              SEE THE FILE "LICENSE.TERMS" FOR INFORMATION ON USAGE AND
#              REDISTRIBUTION OF THIS FILE.
# ======================================================================
#
# MODELISATION 2D AXI ELEMENTS LINEAIRES : TRIA3 ET QUAD4
#
######

DEBUT(CODE=_F(NOM='SSNV104B',NIV_PUB_WEB='INTERNET'),DEBUG=_F(SDVERI='OUI'))

MA=LIRE_MAILLAGE(FORMAT='MED',)

MO=AFFE_MODELE(
                           MAILLAGE=MA,
                          AFFE=_F(
                                TOUT = 'OUI',
                                PHENOMENE = 'MECANIQUE',
                                MODELISATION = 'AXIS')
                        )

#

MAT=DEFI_MATERIAU(
                            ELAS=_F(
                                  E = 20000.0,
                                  NU = 0.3,
                                  ALPHA = 0.01)
                          )

#

CHMAT=AFFE_MATERIAU(
                            MAILLAGE=MA,
                           AFFE=_F(
                                 TOUT = 'OUI',
                                 MATER = MAT)
                           )

#
CHAR=AFFE_CHAR_MECA(
                     MODELE=MO,DDL_IMPO=(
                     _F(  GROUP_NO = 'SPHSUP',  DY = -2.0),
                              _F(  GROUP_NO = 'SPHINF',  DY = 2.0),
                              _F(  GROUP_NO = 'AXE',     DX = 0.0)),

                   )

CHA2= DEFI_CONTACT(MODELE      = MO,
                   FORMULATION = 'DISCRETE',
                   ZONE =_F(  APPARIEMENT = 'NODAL',
                              NORMALE    = 'ESCL',
                               ALGO_CONT = 'LAGRANGIEN',
                               GROUP_MA_MAIT = 'CON1',
                               GROUP_MA_ESCL = 'CON2'),
                  );


#
CHA3= DEFI_CONTACT(MODELE      = MO,
                   FORMULATION = 'DISCRETE',
                   ZONE =_F(  APPARIEMENT = 'MAIT_ESCL',
                               ALGO_CONT = 'LAGRANGIEN',
                               GROUP_MA_MAIT = 'CON1',
                               GROUP_MA_ESCL = 'CON2'),
                  );

#
CHA4= DEFI_CONTACT(MODELE      = MO,
                   FORMULATION = 'DISCRETE',
                   ZONE =_F(  APPARIEMENT = 'MAIT_ESCL',
                               ALGO_CONT = 'CONTRAINTE',
                               GROUP_MA_MAIT = 'CON1',
                               GROUP_MA_ESCL = 'CON2'),
                  );

#

RAMPE=DEFI_FONCTION(   NOM_PARA='INST',
            PROL_GAUCHE='LINEAIRE',   PROL_DROITE='LINEAIRE',
            VALE=(0.0,0.0,1.0,1.0,) )

#

L_INST=DEFI_LIST_REEL(
                             DEBUT=0.0,
                              INTERVALLE=_F( JUSQU_A = 1., NOMBRE = 10)
                           )
#

RESU2=STAT_NON_LINE(
SOLVEUR=_F(SYME='OUI',),
                            MODELE=MO,
                        CHAM_MATER=CHMAT,
                             EXCIT=_F(
                CHARGE = CHAR,
                FONC_MULT = RAMPE),
                CONTACT = CHA2,
                         COMP_ELAS=_F(
                RELATION = 'ELAS'),
                            NEWTON=_F(
                MATRICE = 'ELASTIQUE'),
                         INCREMENT=_F(
                LIST_INST = L_INST,
                NUME_INST_FIN = 10),
                       CONVERGENCE=_F(
                ARRET = 'OUI',
                ITER_GLOB_MAXI = 10),
                INFO=1
              )

RESU2=CALC_CHAMP(reuse=RESU2,CONTRAINTE=('SIGM_ELNO'),VARI_INTERNE=('VARI_ELNO'),RESULTAT=RESU2)


#
SIELGA2=CREA_CHAMP(  OPERATION='EXTR', TYPE_CHAM='ELGA_SIEF_R',
NOM_CHAM='SIEF_ELGA',
                        RESULTAT=RESU2,
                        NUME_ORDRE=10
                       )

#
SIELNO2=CREA_CHAMP(  OPERATION='EXTR', TYPE_CHAM='ELNO_SIEF_R',
NOM_CHAM='SIGM_ELNO',
                        RESULTAT=RESU2,
                        NUME_ORDRE=10
                       )

# TEST DE LA CONFORMITE AVEC LA SOLUTION DE REFERENCE ANALYTIQUE


TEST_RESU(CHAM_ELEM=_F(NOEUD='N291',
                       CRITERE='RELATIF',
                       REFERENCE='ANALYTIQUE',
                       NOM_CMP='SIYY',
                       PRECISION=0.070000000000000007,
                       MAILLE='M31',
                       CHAM_GD=SIELNO2,
                       VALE_CALC=-2.97128902E+03,
                       VALE_REFE=-2798.3000000000002,),
          )

# TEST DE LA CONFORMITE PAR RAPPORT AUX RESULTATS ASTER
# PRECEDENTS


TEST_RESU(CHAM_ELEM=_F(NOEUD='N291',
                       CRITERE='RELATIF',
                       NOM_CMP='SIYY',
                       MAILLE='M31',
                       CHAM_GD=SIELNO2,
                       VALE_CALC=-2971.27,
                       TOLE_MACHINE=1.E-3,),
          RESU=(_F(NUME_ORDRE=10,
                   REFERENCE='ANALYTIQUE',
                   RESULTAT=RESU2,
                   NOM_CHAM='DEPL',
                   NOEUD='N291',
                   NOM_CMP='DX',
                   VALE_CALC=-1.8021244811E-19,
                   VALE_REFE=0.0,
                   TOLE_MACHINE=1.E-10,
                   CRITERE='ABSOLU',
                   PRECISION=1.E-10,),
                _F(NUME_ORDRE=10,
                   RESULTAT=RESU2,
                   NOM_CHAM='DEPL',
                   NOEUD='N287',
                   NOM_CMP='DX',
                   VALE_CALC=-0.11128300000000001,
                   TOLE_MACHINE=1.E-3,
                   CRITERE='RELATIF',
                   ),
                _F(NUME_ORDRE=10,
                   RESULTAT=RESU2,
                   NOM_CHAM='DEPL',
                   NOEUD='N287',
                   NOM_CMP='DY',
                   VALE_CALC=-0.16184200000000001,
                   TOLE_MACHINE=1.E-3,
                   CRITERE='RELATIF',
                   ),
                _F(NUME_ORDRE=10,
                   RESULTAT=RESU2,
                   NOM_CHAM='DEPL',
                   NOEUD='N285',
                   NOM_CMP='DX',
                   VALE_CALC=-0.16854,
                   TOLE_MACHINE=1.E-3,
                   CRITERE='RELATIF',
                   ),
                _F(NUME_ORDRE=10,
                   RESULTAT=RESU2,
                   NOM_CHAM='DEPL',
                   NOEUD='N285',
                   NOM_CMP='DY',
                   VALE_CALC=-0.62858700000000001,
                   TOLE_MACHINE=1.E-3,
                   CRITERE='RELATIF',
                   ),
                ),
          )

RESU3=STAT_NON_LINE(
SOLVEUR=_F(SYME='OUI',),
                            MODELE=MO,
                        CHAM_MATER=CHMAT,
                             EXCIT=_F(
                CHARGE = CHAR,
                FONC_MULT = RAMPE),
                CONTACT = CHA3,
                         COMP_ELAS=_F(
                RELATION = 'ELAS'),
                            NEWTON=_F(
                MATRICE = 'ELASTIQUE'),
                         INCREMENT=_F(
                LIST_INST = L_INST,
                NUME_INST_FIN = 10),
                       CONVERGENCE=_F(
                ARRET = 'OUI',
                ITER_GLOB_MAXI = 10),
               INFO=1
              )

RESU3=CALC_CHAMP(reuse=RESU3,CONTRAINTE=('SIGM_ELNO'),VARI_INTERNE=('VARI_ELNO'),RESULTAT=RESU3)

#
SIELGA3=CREA_CHAMP(  OPERATION='EXTR', TYPE_CHAM='ELGA_SIEF_R',
NOM_CHAM='SIEF_ELGA',
                        RESULTAT=RESU3,
                        NUME_ORDRE=10
                       )

#
SIELNO3=CREA_CHAMP(  OPERATION='EXTR', TYPE_CHAM='ELNO_SIEF_R',
NOM_CHAM='SIGM_ELNO',
                        RESULTAT=RESU3,
                        NUME_ORDRE=10
                       )

TEST_RESU(CHAM_ELEM=_F(NOEUD='N291',
                       CRITERE='RELATIF',
                       REFERENCE='ANALYTIQUE',
                       NOM_CMP='SIYY',
                       PRECISION=0.070000000000000007,
                       MAILLE='M31',
                       CHAM_GD=SIELNO3,
                       VALE_CALC=-2.97265240E+03,
                       VALE_REFE=-2798.3000000000002,),
          )

# TEST DE LA CONFORMITE PAR RAPPORT AUX RESULTATS ASTER
# PRECEDENTS


TEST_RESU(CHAM_ELEM=_F(NOEUD='N291',
                       CRITERE='RELATIF',
                       NOM_CMP='SIYY',
                       MAILLE='M31',
                       CHAM_GD=SIELNO3,
                       VALE_CALC=-2973.0,
                       TOLE_MACHINE=1.E-3,),
          RESU=(_F(NUME_ORDRE=10,
                   REFERENCE='ANALYTIQUE',
                   RESULTAT=RESU3,
                   NOM_CHAM='DEPL',
                   NOEUD='N291',
                   NOM_CMP='DX',
                   VALE_CALC= 2.8155963666E-19,
                   VALE_REFE=0.0,
                   TOLE_MACHINE=1.E-10,
                   CRITERE='ABSOLU',
                   PRECISION=1.E-10,),
                _F(NUME_ORDRE=10,
                   RESULTAT=RESU3,
                   NOM_CHAM='DEPL',
                   NOEUD='N287',
                   NOM_CMP='DX',
                   VALE_CALC=-0.10810386252479,
                   TOLE_MACHINE=1.E-3,
                   CRITERE='RELATIF',
                   ),
                _F(NUME_ORDRE=10,
                   RESULTAT=RESU3,
                   NOM_CHAM='DEPL',
                   NOEUD='N287',
                   NOM_CMP='DY',
                   VALE_CALC=-0.16437466032268999,
                   TOLE_MACHINE=1.E-3,
                   CRITERE='RELATIF',
                   ),
                _F(NUME_ORDRE=10,
                   RESULTAT=RESU3,
                   NOM_CHAM='DEPL',
                   NOEUD='N285',
                   NOM_CMP='DX',
                   VALE_CALC=-0.16091237439822001,
                   TOLE_MACHINE=1.E-3,
                   CRITERE='RELATIF',
                   ),
                _F(NUME_ORDRE=10,
                   RESULTAT=RESU3,
                   NOM_CHAM='DEPL',
                   NOEUD='N285',
                   NOM_CMP='DY',
                   VALE_CALC=-0.63098600000000005,
                   TOLE_MACHINE=1.E-3,
                   CRITERE='RELATIF',
                   ),
                ),
          )

RESU4=STAT_NON_LINE(
SOLVEUR=_F(SYME='OUI',),
                            MODELE=MO,
                        CHAM_MATER=CHMAT,
                             EXCIT=_F(
                CHARGE = CHAR,
                FONC_MULT = RAMPE),
                CONTACT = CHA4,
                         COMP_ELAS=_F(
                RELATION = 'ELAS'),
                            NEWTON=_F(
                MATRICE = 'ELASTIQUE'),
                         INCREMENT=_F(
                LIST_INST = L_INST,
                NUME_INST_FIN = 10),
                       CONVERGENCE=_F(
                ARRET = 'OUI',
                ITER_GLOB_MAXI = 10),
                INFO=1
              )

RESU4=CALC_CHAMP(reuse=RESU4,CONTRAINTE=('SIGM_ELNO'),VARI_INTERNE=('VARI_ELNO'),RESULTAT=RESU4)

#
SIELGA4=CREA_CHAMP(  OPERATION='EXTR', TYPE_CHAM='ELGA_SIEF_R',
NOM_CHAM='SIEF_ELGA',
                        RESULTAT=RESU4,
                        NUME_ORDRE=10
                       )

#
SIELNO4=CREA_CHAMP(  OPERATION='EXTR', TYPE_CHAM='ELNO_SIEF_R',
NOM_CHAM='SIGM_ELNO',
                        RESULTAT=RESU4,
                        NUME_ORDRE=10
                       )

TEST_RESU(CHAM_ELEM=_F(NOEUD='N291',
                       CRITERE='RELATIF',
                       REFERENCE='ANALYTIQUE',
                       NOM_CMP='SIYY',
                       PRECISION=0.070000000000000007,
                       MAILLE='M31',
                       CHAM_GD=SIELNO4,
                       VALE_CALC=-2.97265240E+03,
                       VALE_REFE=-2798.3000000000002,),
          )

# TEST DE LA CONFORMITE PAR RAPPORT AUX RESULTATS ASTER
# PRECEDENTS


TEST_RESU(CHAM_ELEM=_F(NOEUD='N291',
                       CRITERE='RELATIF',
                       NOM_CMP='SIYY',
                       MAILLE='M31',
                       CHAM_GD=SIELNO4,
                       VALE_CALC=-2973.0,
                       TOLE_MACHINE=1.E-3,),
          RESU=(_F(NUME_ORDRE=10,
                   REFERENCE='ANALYTIQUE',
                   RESULTAT=RESU4,
                   NOM_CHAM='DEPL',
                   NOEUD='N291',
                   NOM_CMP='DX',
                   VALE_CALC=-9.3295184725E-21,
                   VALE_REFE=0.0,
                   TOLE_MACHINE=1.E-10,
                   CRITERE='ABSOLU',
                   PRECISION=1.E-10,),
                _F(NUME_ORDRE=10,
                   RESULTAT=RESU4,
                   NOM_CHAM='DEPL',
                   NOEUD='N287',
                   NOM_CMP='DX',
                   VALE_CALC=-0.10810386252479,
                   TOLE_MACHINE=1.E-3,
                   CRITERE='RELATIF',
                   ),
                _F(NUME_ORDRE=10,
                   RESULTAT=RESU4,
                   NOM_CHAM='DEPL',
                   NOEUD='N287',
                   NOM_CMP='DY',
                   VALE_CALC=-0.16437466032268999,
                   TOLE_MACHINE=1.E-3,
                   CRITERE='RELATIF',
                   ),
                _F(NUME_ORDRE=10,
                   RESULTAT=RESU4,
                   NOM_CHAM='DEPL',
                   NOEUD='N285',
                   NOM_CMP='DX',
                   VALE_CALC=-0.16091237439822001,
                   TOLE_MACHINE=1.E-3,
                   CRITERE='RELATIF',
                   ),
                _F(NUME_ORDRE=10,
                   RESULTAT=RESU4,
                   NOM_CHAM='DEPL',
                   NOEUD='N285',
                   NOM_CMP='DY',
                   VALE_CALC=-0.63098600000000005,
                   TOLE_MACHINE=1.E-3,
                   CRITERE='RELATIF',
                   ),
                ),
          )

# TEST DE LA CONFORMITE AVEC LA SOLUTION DE REFERENCE ANALYTIQUE


FIN()
#
