
# MODIF  DATE 15/05/2007   AUTEUR GENIAUT S.GENIAUT 
# TITRE LBB CONDITION ET CONTACT FROTTANT AVEC X-FEM
#            CONFIGURATION MANAGEMENT OF EDF VERSION
# ======================================================================
# COPYRIGHT (C) 1991 - 2006  EDF R&D                  WWW.CODE-ASTER.ORG
# THIS PROGRAM IS FREE SOFTWARE; YOU CAN REDISTRIBUTE IT AND/OR MODIFY
# IT UNDER THE TERMS OF THE GNU GENERAL PUBLIC LICENSE AS PUBLISHED BY
# THE FREE SOFTWARE FOUNDATION; EITHER VERSION 2 OF THE LICENSE, OR
# (AT YOUR OPTION) ANY LATER VERSION.
#
# THIS PROGRAM IS DISTRIBUTED IN THE HOPE THAT IT WILL BE USEFUL, BUT
# WITHOUT ANY WARRANTY; WITHOUT EVEN THE IMPLIED WARRANTY OF
# MERCHANTABILITY OR FITNESS FOR A PARTICULAR PURPOSE. SEE THE GNU
# GENERAL PUBLIC LICENSE FOR MORE DETAILS.
#
# YOU SHOULD HAVE RECEIVED A COPY OF THE GNU GENERAL PUBLIC LICENSE
# ALONG WITH THIS PROGRAM; IF NOT, WRITE TO EDF R&D CODE_ASTER,
#    1 AVENUE DU GENERAL DE GAULLE, 92141 CLAMART CEDEX, FRANCE.
# ======================================================================

DEBUT(CODE=_F(NOM='SSNV186F', NIV_PUB_WEB='INTERNET'),DEBUG=_F(SDVERI='OUI'))

PRE_GIBI();

MAILLAG1=LIRE_MAILLAGE(INFO=1,);

MAILLAG2=CREA_MAILLAGE(MAILLAGE=MAILLAG1,
                        LINE_QUAD=_F(GROUP_MA='SURF',),);

MAILLAG2=DEFI_GROUP(reuse =MAILLAG2,
                    MAILLAGE=MAILLAG2,
                    CREA_GROUP_NO=_F(NOM='SURFQUAD',
                                     GROUP_MA='SURF',),);

MODELEIN=AFFE_MODELE(MAILLAGE=MAILLAG2,
                     AFFE=(_F(GROUP_MA=('SURF',),
                              PHENOMENE='MECANIQUE',
                              MODELISATION='C_PLAN_XFEM',),
                           _F(GROUP_MA=('LIG1','LIG3',),
                              PHENOMENE='MECANIQUE',
                              MODELISATION='C_PLAN',),),);

LN=FORMULE(NOM_PARA=('X','Y'),VALE='Y-17.5');
LT=FORMULE(NOM_PARA=('X','Y'),VALE='-X-100');

FISS=DEFI_FISS_XFEM(MODELE=MODELEIN,
                    DEFI_FISS=_F(
                                 FONC_LT=LT,
                                 FONC_LN=LN,
                                 ),
                    GROUP_MA_ENRI='SURF',
                    INFO=1,);

CTXFEM = AFFE_CHAR_MECA( CONTACT=_F( FISS_MAIT=FISS,
                                      METHODE = 'XFEM',
                                     COEF_REGU_CONT=100.,
                               ITER_CONT_MAXI=4,
                               CONTACT_INIT='OUI',
                               ALGO_LAGR='NON',
                               COEF_ECHELLE=1.E11,
                               FROTTEMENT='COULOMB',
                               COULOMB=1.0,
                               ITER_FROT_MAXI=6,
                               COEF_REGU_FROT=1000.,
                                    ),
                          MODELE=MODELEIN,
                          ),  

MODELEK=MODI_MODELE_XFEM(MODELE_IN=MODELEIN,
                         FISSURE=FISS,
                         CONTACT=CTXFEM,
                         INFO=1,);

E=1.0E11
nu=0.
ACIER=DEFI_MATERIAU(ELAS=_F(E=E,
                            NU=nu,
                            RHO=7800.0,),);

CHAMPMAT=AFFE_MATERIAU(MAILLAGE=MAILLAG2,
                       MODELE=MODELEK,
                       AFFE=_F(GROUP_MA=('SURF','LIG1','LIG3',),
                                MATER=ACIER,
                                TEMP_REF=0.0,),);

PRES=100.
FCTPRES=FORMULE(NOM_PARA=('X','Y'),VALE='(PRES-(X-10.)*(X-10.)/2.)*E/(1e6)');

CH1=AFFE_CHAR_MECA(MODELE=MODELEK,
                   DDL_IMPO=(_F(GROUP_MA='LIG1',
                                          DX=0.0,
                                          DY=0.0,),
                             _F(GROUP_MA='LIG3',
                                          DX=0.0,),),
                    INFO=1,);

CHF=AFFE_CHAR_MECA_F(MODELE=MODELEK,
                     PRES_REP=_F(GROUP_MA='LIG3',
                                 PRES=FCTPRES,),);

CHXFEM=AFFE_CHAR_MECA(MODELE=MODELEK,
                      LIAISON_XFEM='OUI',
                      CONTACT_XFEM='OUI',);

L_INST=DEFI_LIST_REEL(DEBUT=0.0,
                      INTERVALLE=_F(JUSQU_A=1.0,
                                    NOMBRE=1,),);

UTOT1=STAT_NON_LINE(MODELE=MODELEK,
                   CHAM_MATER=CHAMPMAT,
                   EXCIT=( _F(CHARGE=CHXFEM,),
                          _F(CHARGE=CTXFEM,),                   
                           _F(CHARGE=CH1,),
                           _F(CHARGE=CHF,),),
                   COMP_ELAS=_F(RELATION='ELAS',
                                GROUP_MA='SURF',),
                   INCREMENT=_F(LIST_INST=L_INST,),
                   SOLVEUR=_F(METHODE='MUMPS',
                              ),
                   ARCHIVAGE=_F(CHAM_EXCLU='VARI_ELGA',),
                   INFO=1,);

LAG=POST_RELEVE_T(ACTION=_F(INTITULE='DEPLE',
                           # maillage 20_20
                              NOEUD=('NS720','NS718','NS721','NS723',
                                  'NS725','NS727','NS729','NS731',
                                  'NS733','NS735','NS737','NS739',
                                  'NS741','NS743','NS745','NS747',
                                  'NS749','NS751','NS753','NS755',
                                  'NS757',),
                             RESULTAT=UTOT1,
                             NOM_CHAM='DEPL',
                             NUME_ORDRE=1,
                             NOM_CMP=('LAGS_C','LAGS_F1',),
                             OPERATION='EXTRACTION',),);

IMPR_TABLE(TABLE=LAG,);


# TESTS

# CETTE VALEUR A ETE OBTENUE PAR LA MODELISATION A
LAREF=-9.52844E-05

TEST_TABLE(TABLE=LAG,
           NOM_PARA='LAGS_C',
           FILTRE=(_F(NOM_PARA='COOR_X',
                      CRIT_COMP='EQ',
                      VALE=10.,),
                   _F(NOM_PARA='COOR_Y',
                      CRIT_COMP='EQ',
                      VALE=17.5,),
                  ),
           VALE=LAREF,
           CRITERE='RELATIF',
           PRECISION=0.000001,
           REFERENCE='AUTRE_ASTER',);

# LA2REF EST LA SOLUTION ANALYTIQUE (PAS DE FROTTEMENT AU POINT MILIEU)
LA1REF=0.

TEST_TABLE(TABLE=LAG,
           NOM_PARA='LAGS_F1',
           FILTRE=(_F(NOM_PARA='COOR_X',
                      CRIT_COMP='EQ',
                      VALE=10.,),
                   _F(NOM_PARA='COOR_Y',
                      CRIT_COMP='EQ',
                      VALE=17.5,),
                  ),
           VALE=LA1REF,
           CRITERE='ABSOLU',
           PRECISION=5.E-3,
           REFERENCE='ANALYTIQUE',);


# -------------------------------------------------------------   
#            POST-TRAITEMENT POUR LA VISUALISATION X-FEM   
# -------------------------------------------------------------   

MA_XFEM=POST_MAIL_XFEM(MAILLAGE_SAIN = MAILLAG1,
                       MODELE        = MODELEK,
                       INFO          = 2)

MOD_VISU=AFFE_MODELE(MAILLAGE=MA_XFEM,
                     AFFE=_F(TOUT='OUI',
                              PHENOMENE='MECANIQUE',
                              MODELISATION='C_PLAN',),) 

RES_XFEM=POST_CHAM_XFEM(MAILLAGE_SAIN = MAILLAG1,
                        MAILLAGE_FISS = MA_XFEM,
                        MODELE        = MODELEK,
                        MODELE_VISU   = MOD_VISU,
                        RESULTAT      = UTOT1,
                        NOM_CHAM      = ('DEPL','SIEF_ELGA'),
                        INFO          = 2)
 
#IMPR_RESU(FORMAT='GMSH',UNITE=81,RESU=_F(RESULTAT=RES_XFEM));

FIN();
