# TITRE CARRE CYLINDRIQUE SOUS FORCE COQUE DANS LE REPERE GLOBAL
# ======================================================================
# COPYRIGHT (C) 1991 - 2012  EDF R&D                  WWW.CODE-ASTER.ORG
# THIS PROGRAM IS FREE SOFTWARE; YOU CAN REDISTRIBUTE IT AND/OR MODIFY
# IT UNDER THE TERMS OF THE GNU GENERAL PUBLIC LICENSE AS PUBLISHED BY
# THE FREE SOFTWARE FOUNDATION; EITHER VERSION 2 OF THE LICENSE, OR
# (AT YOUR OPTION) ANY LATER VERSION.
#
# THIS PROGRAM IS DISTRIBUTED IN THE HOPE THAT IT WILL BE USEFUL, BUT
# WITHOUT ANY WARRANTY; WITHOUT EVEN THE IMPLIED WARRANTY OF
# MERCHANTABILITY OR FITNESS FOR A PARTICULAR PURPOSE. SEE THE GNU
# GENERAL PUBLIC LICENSE FOR MORE DETAILS.
#
# YOU SHOULD HAVE RECEIVED A COPY OF THE GNU GENERAL PUBLIC LICENSE
# ALONG WITH THIS PROGRAM; IF NOT, WRITE TO EDF R&D CODE_ASTER,
#    1 AVENUE DU GENERAL DE GAULLE, 92141 CLAMART CEDEX, FRANCE.
# ======================================================================

DEBUT(CODE=_F(NIV_PUB_WEB='INTERNET',),
      DEBUG=_F(SDVERI='OUI',),);

MATERI_1=DEFI_MATERIAU(ELAS=_F(E=450000.,
                               NU=0.3,),);

MAILLA_1=LIRE_MAILLAGE(FORMAT='MED',);

MAILLA_1=DEFI_GROUP(reuse =MAILLA_1,
                    MAILLAGE=MAILLA_1,
                    CREA_GROUP_MA=_F(NOM='TOUT',
                                     TOUT='OUI',),);

CH_MAT_1=AFFE_MATERIAU(MAILLAGE=MAILLA_1,
                       AFFE=_F(TOUT='OUI',
                               MATER=MATERI_1,),);

MODELE_1=AFFE_MODELE(MAILLAGE=MAILLA_1,
                     
                     AFFE=_F(TOUT='OUI',
                             PHENOMENE='MECANIQUE',
                             MODELISATION='COQUE_3D',),);

CHARGE_1=AFFE_CHAR_MECA(MODELE=MODELE_1,
                        DDL_IMPO=(_F(GROUP_NO='G_10',
                                     DY=0.,
                                     DRX=0.,
                                     DRZ=0.,),
                                  _F(GROUP_NO='G_20',
                                     DX=0.,
                                     DRY=0.,
                                     DRZ=0.,),
                                  _F(GROUP_NO='G_30',
                                     DX=0.,
                                     DY=0.,
                                     DZ=0.,
                                     DRX=0.,
                                     DRY=0.,
                                     DRZ=0.,),
                                  _F(GROUP_NO='G_40',
                                     DX=0.,
                                     DY=0.,
                                     DZ=0.,
                                     DRX=0.,
                                     DRY=0.,
                                     DRZ=0.,),),
                        FORCE_COQUE=_F(TOUT='OUI',
                                       FZ=-1.,),);

CARAC_1=AFFE_CARA_ELEM(MODELE=MODELE_1,
                       COQUE=_F(GROUP_MA='TOUT',
                                EPAIS=0.125,
                                COEF_RIGI_DRZ=1.E-5,),);

D_FONC=DEFI_FONCTION(
                     NOM_PARA='INST',
                     VALE=(0.,0.,
                           1.,1.,
                           ),);

L_INST=DEFI_LIST_REEL(DEBUT=0.0,
                      INTERVALLE=_F(JUSQU_A=0.4,
                                    NOMBRE=10,),);

SIGMINI0=CREA_CHAMP(TYPE_CHAM='ELGA_SIEF_R',
                    PROL_ZERO='OUI',
                    AFFE_SP=_F(CARA_ELEM=CARAC_1,),
                    OPERATION='AFFE',
                    MODELE=MODELE_1,
                    AFFE=_F(TOUT='OUI',
                            NOM_CMP='SIXX',
                            VALE=0.,),);

NONLIN=STAT_NON_LINE(MODELE=MODELE_1,
                     CHAM_MATER=CH_MAT_1,
                     CARA_ELEM=CARAC_1,
                     EXCIT=_F(CHARGE=CHARGE_1,
                              FONC_MULT=D_FONC,
                              TYPE_CHARGE='FIXE_CSTE',),
                     COMPORTEMENT=_F(RELATION='ELAS',
                                     DEFORMATION='GROT_GDEP',),
                     ETAT_INIT=_F(SIGM=SIGMINI0,),
                     INCREMENT=_F(LIST_INST=L_INST,),
                     NEWTON=_F(REAC_ITER=1,),
                     CONVERGENCE=_F(RESI_GLOB_RELA=1.E-6,
                                    ITER_GLOB_MAXI=25,),);

#   MI CHARGE
#   CHARGE MAXIMALE
##################################################################


#
#   DEPLACEMENT Z NEGATIF

TEST_RESU(RESU=_F(RESULTAT=NONLIN,
                  NUME_ORDRE=5,
                  NOM_CHAM='DEPL',
                  NOM_CMP='DZ',
                  GROUP_NO='G_11',
                  CRITERE='RELATIF',
                  VALE_REFE=-0.10433,
                  PRECISION=0.01,
                  REFERENCE='NON_DEFINI',
                  VALE_CALC=-0.103963325,),);

#   CHARGE MAXIMALE
##################################################################


#
#   DEPLACEMENT Z NEGATIF

TEST_RESU(RESU=_F(RESULTAT=NONLIN,
                  NUME_ORDRE=10,
                  NOM_CHAM='DEPL',
                  NOM_CMP='DZ',
                  GROUP_NO='G_11',
                  CRITERE='RELATIF',
                  VALE_REFE=-0.39351,
                  PRECISION=0.01,
                  REFERENCE='NON_DEFINI',
                  VALE_CALC=-0.392085998,),);

FIN();
#CHECKSUM:e773a4f47dcfb4c7a07521aaa0dcfe0d  -:FIN CHECKSUM