# ======================================================================
# COPYRIGHT (C) 1991 - 2016  EDF R&D                  WWW.CODE-ASTER.ORG
# THIS PROGRAM IS FREE SOFTWARE; YOU CAN REDISTRIBUTE IT AND/OR MODIFY
# IT UNDER THE TERMS OF THE GNU GENERAL PUBLIC LICENSE AS PUBLISHED BY
# THE FREE SOFTWARE FOUNDATION; EITHER VERSION 2 OF THE LICENSE, OR
# (AT YOUR OPTION) ANY LATER VERSION.
#
# THIS PROGRAM IS DISTRIBUTED IN THE HOPE THAT IT WILL BE USEFUL, BUT
# WITHOUT ANY WARRANTY; WITHOUT EVEN THE IMPLIED WARRANTY OF
# MERCHANTABILITY OR FITNESS FOR A PARTICULAR PURPOSE. SEE THE GNU
# GENERAL PUBLIC LICENSE FOR MORE DETAILS.
#
# YOU SHOULD HAVE RECEIVED A COPY OF THE GNU GENERAL PUBLIC LICENSE
# ALONG WITH THIS PROGRAM; IF NOT, WRITE TO EDF R&D CODE_ASTER,
#    1 AVENUE DU GENERAL DE GAULLE, 92141 CLAMART CEDEX, FRANCE.
# ======================================================================
# MODELISATION 3D : RAG
# -----------------------------------------------------

DEBUT(CODE=_F(NIV_PUB_WEB='INTRANET'),DEBUG=_F(SDVERI='OUI'))

M=LIRE_MAILLAGE();

M=DEFI_GROUP(reuse =M,
             MAILLAGE=M,
             CREA_GROUP_NO=_F(GROUP_MA='S_INF',),);

M=DEFI_GROUP(reuse =M,
             MAILLAGE=M,
             CREA_GROUP_NO=_F(GROUP_MA='S_SUP',),);

M=DEFI_GROUP(reuse =M,
             MAILLAGE=M,
             CREA_GROUP_NO=_F(GROUP_MA='S_ARR',),);

M=DEFI_GROUP(reuse =M,
             MAILLAGE=M,
             CREA_GROUP_NO=_F(GROUP_MA='S_AVT',),);

M=DEFI_GROUP(reuse =M,
             MAILLAGE=M,
             CREA_GROUP_NO=_F(GROUP_MA='SEC1',),);

MO=AFFE_MODELE(MAILLAGE=M,
               AFFE=_F(TOUT='OUI',
                       PHENOMENE='MECANIQUE',
                       MODELISATION='3D',),);

M=MODI_MAILLAGE(reuse =M,
                MAILLAGE=M,
                ORIE_PEAU_3D=_F(GROUP_MA=('SEC1','S_SUP',),),);

INCLUDE(DONNEE='ssnv212.mater.datg')

# sech = saturation, (hydr = avancement rag), temp = temperature

SECHI=CREA_CHAMP(TYPE_CHAM='NOEU_TEMP_R',
                 OPERATION='AFFE',
                 MAILLAGE=M,
                 AFFE=_F(TOUT='OUI',
                         NOM_CMP='TEMP',
                         VALE=0.83,),);

SECHF=CREA_CHAMP(TYPE_CHAM='NOEU_TEMP_R',
                 OPERATION='AFFE',
                 MAILLAGE=M,
                 AFFE=_F(TOUT='OUI',
                         NOM_CMP='TEMP',
                         VALE=0.54,),);

SECH=CREA_RESU(OPERATION='AFFE',
               TYPE_RESU='EVOL_THER',
               NOM_CHAM='TEMP',
               AFFE=(_F(CHAM_GD=SECHI,
                        INST=0.0,),
                     _F(CHAM_GD=SECHF,
                        INST=500.0,),),);

TEMPI=CREA_CHAMP(TYPE_CHAM='NOEU_TEMP_R',
                 OPERATION='AFFE',
                 MAILLAGE=M,
                 AFFE=_F(TOUT='OUI',
                         NOM_CMP='TEMP',
                         VALE=20.0,),);

TEMPF=CREA_CHAMP(TYPE_CHAM='NOEU_TEMP_R',
                 OPERATION='AFFE',
                 MAILLAGE=M,
                 AFFE=_F(TOUT='OUI',
                         NOM_CMP='TEMP',
                         VALE=38.0,),);

TEMP=CREA_RESU(OPERATION='AFFE',
               TYPE_RESU='EVOL_THER',
               NOM_CHAM='TEMP',
               AFFE=(_F(CHAM_GD=TEMPI,
                        INST=0.0,),
                     _F(CHAM_GD=TEMPI,
                        INST=28.0,),
                     _F(CHAM_GD=TEMPF,
                        INST=29.0,),
                     _F(CHAM_GD=TEMPF,
                        INST=500.0,),),);

CM=AFFE_MATERIAU(MAILLAGE=M,
                 AFFE=(_F(TOUT='OUI',
                          MATER=BETON,),),
                       AFFE_VARC=(_F(TOUT='OUI',
                                    EVOL=SECH,
                                    NOM_VARC='SECH', VALE_REF=0.,
                                    NOM_CHAM='TEMP',
                                    PROL_DROITE='LINEAIRE',
                                    PROL_GAUCHE='CONSTANT',),
                                  _F(TOUT='OUI',
                                    EVOL=TEMP,
                                    NOM_VARC='TEMP',
                                    NOM_CHAM='TEMP',
                                    VALE_REF = 38.),),
                        );

FORC1=DEFI_FONCTION(NOM_PARA='INST',
                    VALE=(0.00,0.00,
                          28.0,0.00,
                          28.1,0.00,
                          500.0,0.00,),
                    PROL_DROITE='CONSTANT',
                    PROL_GAUCHE='CONSTANT',);

CH10=AFFE_CHAR_MECA(MODELE=MO,
                    DDL_IMPO=_F(GROUP_NO='S_INF',
                                DZ=0.0,),);

CH11=AFFE_CHAR_MECA(MODELE=MO,
                    FACE_IMPO=_F(GROUP_MA='S_ARR',
                                 DNOR=0.0,),);

CH12=AFFE_CHAR_MECA(MODELE=MO,
                    DDL_IMPO=_F(GROUP_NO='S_AVT',
                                DY=0.0,),);

CH13=AFFE_CHAR_MECA(MODELE=MO,
                    PRES_REP=_F(GROUP_MA='SEC1',
                                PRES=0.0,),);

CH20=AFFE_CHAR_MECA_F(MODELE=MO,
                      PRES_REP=_F(GROUP_MA='S_SUP',
                                  PRES=FORC1,),);

L_INST=DEFI_LIST_REEL(DEBUT=0.0,
                      INTERVALLE=(_F(JUSQU_A=28.0,
                                     NOMBRE=28,),
                                  _F(JUSQU_A=40.0,
                                     NOMBRE=12,),
                                  _F(JUSQU_A=100.0,
                                     NOMBRE=60,),
                                  _F(JUSQU_A=200.0,
                                     NOMBRE=100,),
                                  _F(JUSQU_A=500.0,
                                     NOMBRE=300,),),);

L_SAUV=DEFI_LIST_REEL(DEBUT=0.0,
                      INTERVALLE=(_F(JUSQU_A=28.0,
                                     NOMBRE=7,),
                                  _F(JUSQU_A=40.0,
                                     NOMBRE=6,),
                                  _F(JUSQU_A=100.0,
                                     NOMBRE=6,),
                                  _F(JUSQU_A=200.0,
                                     NOMBRE=10,),
                                  _F(JUSQU_A=500.0,
                                     NOMBRE=10,),),);

U=STAT_NON_LINE( MODELE=MO,
                 CHAM_MATER=CM,
                 EXCIT=( _F(CHARGE = CH10),
                         _F(CHARGE = CH11),
                         _F(CHARGE = CH12),
                         _F(CHARGE = CH13),
                         _F(CHARGE = CH20),),
                 COMPORTEMENT=_F(RELATION = 'BETON_RAG'),
                 INCREMENT=_F(LIST_INST = L_INST,
                              NUME_INST_FIN = 500,),
                 NEWTON=_F(PREDICTION='ELASTIQUE',
                           MATRICE='TANGENTE',
                           REAC_ITER=1),
                 CONVERGENCE=_F(RESI_GLOB_MAXI=1e-12,
                                ITER_GLOB_MAXI=50,),
                 ARCHIVAGE=_F(LIST_INST=L_SAUV,),);

U=CALC_CHAMP(reuse=U,RESULTAT=U,CONTRAINTE=('SIGM_ELNO'),VARI_INTERNE=('VARI_ELNO'),DEFORMATION=('EPSI_ELNO'))



TEST_RESU(RESU=(_F(NUME_ORDRE=8,
                   REFERENCE='NON_DEFINI',
                   RESULTAT=U,
                   NOM_CHAM='DEPL',
                   NOEUD='N6',
                   NOM_CMP='DZ',
                   VALE_CALC=-1.13970260E-05,
                   VALE_REFE=-1.1399999999999999E-05,
                   PRECISION=5.0000000000000001E-3,
                   MAILLE='M1',),
                _F(NUME_ORDRE=39,
                   REFERENCE='NON_DEFINI',
                   RESULTAT=U,
                   NOM_CHAM='DEPL',
                   NOEUD='N5',
                   NOM_CMP='DZ',
                   VALE_CALC= 8.09150299E-05,
                   VALE_REFE=8.0912240000000004E-05,
                   PRECISION=5.0000000000000001E-3,
                   MAILLE='M1',),
                _F(NUME_ORDRE=8,
                   REFERENCE='NON_DEFINI',
                   RESULTAT=U,
                   NOM_CHAM='VARI_ELNO',
                   NOEUD='N6',
                   NOM_CMP='V30',
                   VALE_CALC=0.700408123,
                   VALE_REFE=0.69497759999999997,
                   PRECISION=1.E-2,
                   MAILLE='M1',),
                _F(NUME_ORDRE=39,
                   REFERENCE='NON_DEFINI',
                   RESULTAT=U,
                   NOM_CHAM='VARI_ELNO',
                   NOEUD='N5',
                   NOM_CMP='V30',
                   VALE_CALC=30.015873310,
                   VALE_REFE=30.015799999999999,
                   PRECISION=5.0000000000000001E-3,
                   MAILLE='M1',),
                ),
          )

#IMPR_RESU(MODELE=MO,
#          FORMAT='CASTEM',
#          RESU=_F(MAILLAGE=M,
#                  RESULTAT=U,),);

FIN();
