# TITRE INDENTATION ELASTOPLASTIQUE D'UN DEMI-PLAN
# ======================================================================
# COPYRIGHT (C) 1991 - 2012  EDF R&D                  WWW.CODE-ASTER.ORG
# THIS PROGRAM IS FREE SOFTWARE; YOU CAN REDISTRIBUTE IT AND/OR MODIFY
# IT UNDER THE TERMS OF THE GNU GENERAL PUBLIC LICENSE AS PUBLISHED BY
# THE FREE SOFTWARE FOUNDATION; EITHER VERSION 2 OF THE LICENSE, OR
# (AT YOUR OPTION) ANY LATER VERSION.
#
# THIS PROGRAM IS DISTRIBUTED IN THE HOPE THAT IT WILL BE USEFUL, BUT
# WITHOUT ANY WARRANTY; WITHOUT EVEN THE IMPLIED WARRANTY OF
# MERCHANTABILITY OR FITNESS FOR A PARTICULAR PURPOSE. SEE THE GNU
# GENERAL PUBLIC LICENSE FOR MORE DETAILS.
#
# YOU SHOULD HAVE RECEIVED A COPY OF THE GNU GENERAL PUBLIC LICENSE
# ALONG WITH THIS PROGRAM; IF NOT, WRITE TO EDF R&D CODE_ASTER,
#    1 AVENUE DU GENERAL DE GAULLE, 92141 CLAMART CEDEX, FRANCE.
# ======================================================================
#  PAR UN INDENTEUR SPHERIQUE ELASTIQUE
#  CAS TEST SSNV506A
#  CONTACT UNILATERAL
#  MODELISATION 2D AXISYMETRIQUE
#  UNITE DE LONGUEUR : LE MM

DEBUT(CODE=_F(NOM='SSNV506A',NIV_PUB_WEB='INTERNET'),DEBUG=_F(SDVERI='OUI'))

SSNV506A=LIRE_MAILLAGE(FORMAT='MED',);

SSNV506A=DEFI_GROUP(reuse =SSNV506A,
                    MAILLAGE=SSNV506A,
                    CREA_GROUP_NO=_F(TOUT_GROUP_MA='OUI',),);

#-------------------------------------------------------------
#                 GRANDEURS PHYSIQUES
#-------------------------------------------------------------

ACIER_B=DEFI_MATERIAU(ELAS=_F(E=210000.,
                              NU=0.3,),
                      ECRO_LINE=_F(D_SIGM_EPSI=0.0,
                                   SY=50,),);

AC_SPH=DEFI_MATERIAU(ELAS=_F(E=21000000.,
                                NU=0.3,),);

DPLY=DEFI_FONCTION(NOM_PARA='INST',
                   VALE=(0.0,0.0,
                         1.0,1.0,),
                   INTERPOL='LIN',);

#----------------------------------------------------------------
#                       MODELE
#----------------------------------------------------------------

MO=AFFE_MODELE(MAILLAGE=SSNV506A,
               AFFE=_F(TOUT='OUI',
                       PHENOMENE='MECANIQUE',
                       MODELISATION='AXIS',),);

#REORIENTATION DES NORMALES
SSNV506A=MODI_MAILLAGE(reuse =SSNV506A,
                       MAILLAGE=SSNV506A,
                       ORIE_PEAU_2D=_F(GROUP_MA=('SMAI','SESC'),),
                       );

#AFFECTATION DU MATERIAU
CHMAT=AFFE_MATERIAU(MAILLAGE=SSNV506A,
                    AFFE=(_F(GROUP_MA='MAT1',
                             MATER=AC_SPH,),
                          _F(GROUP_MA='MAT2',
                             MATER=ACIER_B,),),);

#CONDITIONS AUX LIMITES


CHA1 = DEFI_CONTACT(MODELE       = MO,
                   FORMULATION  = 'DISCRETE',

                   ZONE=(
                        _F(
                            GROUP_MA_MAIT='SMAI',
                               GROUP_MA_ESCL='SESC',
## UNIQUEMENT SI ON MET LE LIAISON_DDL PLUS BAS
#                               SANS_GROUP_NO=('PLANX','LS','LB'),
#                               SANS_GROUP_NO=('E','S',),
                         ),

                       ),
                  )

CHA2=AFFE_CHAR_MECA(MODELE=MO,
                    DDL_IMPO=(_F(GROUP_NO='NDPL',
                                 DY=-100.0,),
## INUTILE EN AXI (SI L'AXE D'AXISYMETRIE COINCIDE "PARFAITEMENT"
##                 AVEC X=0)
                              _F(GROUP_NO=('LS','LB'),
                                 DX=0.0,),
                              _F(GROUP_NO='PLANX',
                                 DX=0.0,DY=0.0,),),
## CETTE LIAISON ENTRE LES NOEUDS E ET S NE SERT A RIEN
## IL N'Y A PAS DE MOUVEMENT DE CORPS RIGIDES CAR
## ON EST EN AXI ET LA SPHERE EST COMPLETEMENT BLOQUEE
#                     LIAISON_DDL=_F(GROUP_NO=('E','S'),
#                                    DDL=('DY','DY'),
#                                    COEF_MULT=(1.0,-1.0),
#                                    COEF_IMPO=0.0,),
                                   );

# CHA2=AFFE_CHAR_CINE(MODELE=MO,
#                     MECA_IMPO=(_F(GROUP_NO='NDPL',
#                                  DY=-100.0,),
# #                               _F(GROUP_NO=('LS','LB'),
# #                                  DX=0.0,),
#                               _F(GROUP_NO='PLANX',
#                                  DX=0.0,DY=0.0,),),
#                                    );

#------------------------------------------------------------------
#                         RESOLUTION
#------------------------------------------------------------------

LINST=DEFI_LIST_REEL(DEBUT=0.0,
                     INTERVALLE=(_F(JUSQU_A=0.01,
                                    NOMBRE=5,),
                                 _F(JUSQU_A=0.15,
                                    NOMBRE=24,),
                                 _F(JUSQU_A=1.0,
                                    NOMBRE=17,),),);

U=STAT_NON_LINE(SOLVEUR=_F(SYME='OUI',#METHODE='MUMPS',
                           ),
                MODELE=MO,
                CHAM_MATER=CHMAT,
                EXCIT=(
                       _F(CHARGE=CHA2,
                          FONC_MULT=DPLY,),),
                CONTACT  = CHA1,
                COMP_INCR=_F(RELATION='VMIS_ISOT_LINE',
                             GROUP_MA='MAT2',),
                COMP_ELAS=_F(RELATION='ELAS',
                             GROUP_MA='MAT1',),
                INCREMENT=_F(LIST_INST=LINST,
                             INST_FIN=1.,),
                NEWTON=_F(MATRICE='TANGENTE',
                          REAC_ITER=1,),
                CONVERGENCE=_F(ITER_GLOB_MAXI=15,),
                INFO=1,
                );

#------------------------------------------------------------------
#                         POST TRAITEMENT
#------------------------------------------------------------------

U=CALC_CHAMP(reuse =U,
          RESULTAT=U,
          FORCE='REAC_NODA',


          );

LINST2=DEFI_LIST_REEL(DEBUT=0.0,
                     INTERVALLE=_F(JUSQU_A=1.,
                                   NOMBRE=10,),);

TAB_REAC=POST_RELEVE_T(ACTION=_F(INTITULE='REAC',
                                 GROUP_NO='SESC',
                                 RESULTAT=U,
                                 NOM_CHAM='REAC_NODA',
                                 LIST_INST=LINST2,
                                 RESULTANTE='DY',
                                 OPERATION='EXTRACTION',),);

IMPR_TABLE(TABLE=TAB_REAC,
           FORMAT='TABLEAU',);

#------------------------------------------------------------------
#                         TESTS DES RESULTATS
#------------------------------------------------------------------
# TESTS SUR DES VALEURS ANALYTIQUES
TEST_TABLE(REFERENCE='ANALYTIQUE',
           PRECISION=0.050000000000000003,
           VALE_CALC=-2.06805626E+06,
           VALE_REFE=-2.0380426000000001E6,
           NOM_PARA='DY',
           TABLE=TAB_REAC,
           FILTRE=_F(NOM_PARA='INST',
                     VALE=0.20000000000000001,),
           )

TEST_TABLE(REFERENCE='ANALYTIQUE',
           PRECISION=0.050000000000000003,
           VALE_CALC=-4.04697734E+06,
           VALE_REFE=-4.0760852000000002E6,
           NOM_PARA='DY',
           TABLE=TAB_REAC,
           FILTRE=_F(NOM_PARA='INST',
                     VALE=0.40000000000000002,),
           )

TEST_TABLE(REFERENCE='ANALYTIQUE',
           PRECISION=0.050000000000000003,
           VALE_CALC=-5.82729863E+06,
           VALE_REFE=-6.1141277999999998E6,
           NOM_PARA='DY',
           TABLE=TAB_REAC,
           FILTRE=_F(NOM_PARA='INST',
                     VALE=0.59999999999999998,),
           )

TEST_TABLE(REFERENCE='ANALYTIQUE',
           PRECISION=0.10000000000000001,
           VALE_CALC=-7.66631717E+06,
           VALE_REFE=-8.1521704000000004E6,
           NOM_PARA='DY',
           TABLE=TAB_REAC,
           FILTRE=_F(NOM_PARA='INST',
                     VALE=0.80000000000000004,),
           )

TEST_TABLE(REFERENCE='ANALYTIQUE',
           PRECISION=0.14999999999999999,
           VALE_CALC=-9.11899474E+06,
           VALE_REFE=-10190213,
           NOM_PARA='DY',
           TABLE=TAB_REAC,
           FILTRE=_F(NOM_PARA='INST',
                     VALE=1.0,),
           )

# TESTS DE NON REGRESSION SUR LES VALEURS
TEST_TABLE(
           VALE_CALC=-2.0680562649766E6,
           TOLE_MACHINE=1.E-3,
           NOM_PARA='DY',
           TABLE=TAB_REAC,
           FILTRE=_F(NOM_PARA='INST',
                     VALE=0.20000000000000001,),
           )

TEST_TABLE(
           VALE_CALC=-4.0469802084085001E6,
           TOLE_MACHINE=1.E-3,
           NOM_PARA='DY',
           TABLE=TAB_REAC,
           FILTRE=_F(NOM_PARA='INST',
                     VALE=0.40000000000000002,),
           )

TEST_TABLE(
           VALE_CALC=-5.8272986503472002E6,
           TOLE_MACHINE=1.E-3,
           NOM_PARA='DY',
           TABLE=TAB_REAC,
           FILTRE=_F(NOM_PARA='INST',
                     VALE=0.59999999999999998,),
           )

TEST_TABLE(
           VALE_CALC=-7.6663171747716004E6,
           TOLE_MACHINE=1.E-3,
           NOM_PARA='DY',
           TABLE=TAB_REAC,
           FILTRE=_F(NOM_PARA='INST',
                     VALE=0.80000000000000004,),
           )

TEST_TABLE(
           VALE_CALC=-9.1189947458762992E6,
           TOLE_MACHINE=1.E-3,
           NOM_PARA='DY',
           TABLE=TAB_REAC,
           FILTRE=_F(NOM_PARA='INST',
                     VALE=1.0,),
           )

# TESTS DE NON-REGRESSION (AUTRES)
TEST_RESU(RESU=_F(INST=1.0,
                  RESULTAT=U,
                  NOM_CHAM='VALE_CONT',
                  NOEUD='N295',
                  NOM_CMP='RN',
                  VALE_CALC=1.1058333934146999E6,
                  TOLE_MACHINE=1.E-3,
                  CRITERE='RELATIF',
                  ),
          )

TEST_RESU(RESU=_F(INST=1.0,
                  RESULTAT=U,
                  NOM_CHAM='VALE_CONT',
                  NOEUD='N294',
                  NOM_CMP='RN',
                  VALE_CALC=0.0,
                  CRITERE='ABSOLU',
                  ),
          )

# IMPR_RESU(MODELE=MO,
#           FORMAT='MED',
#           RESU=_F(MAILLAGE=SSNV506A,
#                   RESULTAT=U,
#                   TOUT='OUI',),);

FIN();
