# MODIF  DATE 26/03/2013   AUTEUR CUVILLIE M.CUVILLIEZ 
# TITRE FISSURE DEBOUCHANTE DANS UNE PLAQUE 3D DE LARGEUR FINIE AVEC X-FEM
# ssnv185c.para = tps_job 550 mem_job 512Mo ncpus 1 liste_test S
#            CONFIGURATION MANAGEMENT OF EDF VERSION
# ======================================================================
# COPYRIGHT (C) 1991 - 2013  EDF R&D                  WWW.CODE-ASTER.ORG
# THIS PROGRAM IS FREE SOFTWARE; YOU CAN REDISTRIBUTE IT AND/OR MODIFY
# IT UNDER THE TERMS OF THE GNU GENERAL PUBLIC LICENSE AS PUBLISHED BY
# THE FREE SOFTWARE FOUNDATION; EITHER VERSION 2 OF THE LICENSE, OR
# (AT YOUR OPTION) ANY LATER VERSION.
#
# THIS PROGRAM IS DISTRIBUTED IN THE HOPE THAT IT WILL BE USEFUL, BUT
# WITHOUT ANY WARRANTY; WITHOUT EVEN THE IMPLIED WARRANTY OF
# MERCHANTABILITY OR FITNESS FOR A PARTICULAR PURPOSE. SEE THE GNU
# GENERAL PUBLIC LICENSE FOR MORE DETAILS.
#
# YOU SHOULD HAVE RECEIVED A COPY OF THE GNU GENERAL PUBLIC LICENSE
# ALONG WITH THIS PROGRAM; IF NOT, WRITE TO EDF R&D CODE_ASTER,
#    1 AVENUE DU GENERAL DE GAULLE, 92141 CLAMART CEDEX, FRANCE.
# ======================================================================

DEBUT(CODE=_F(NOM='SSNV185C',NIV_PUB_WEB='INTERNET',VISU_EFICAS='NON'),DEBUG=_F(SDVERI='OUI'))

# MODELISATION C : X-FEM FISSURE NON-COINCIDENTE PUR - TRACTION
# LE FOND DE FISSURE EST AU CENTRE DES ELEMENTS
# ON TESTE : 
# - UNE PRESSION CONSTANTE SUR LES FACES SUP ET FIN
# - UNE PRESSION CONSTANTE SUR LES LEVRES
# - UNE PRESSION FONCTION SUR LES LEVRES

#----------------------------------------------
#                MAILLAGE : hexa_5_31_51.mgib
#----------------------------------------------

MAILLAG1=LIRE_MAILLAGE(FORMAT='MED',)

MAILLAG1=DEFI_GROUP(reuse =MAILLAG1,
                    MAILLAGE=MAILLAG1,
                    CREA_GROUP_NO=_F(GROUP_MA='VOL',),);

MAILLAG1=DEFI_GROUP(reuse =MAILLAG1,
                    MAILLAGE=MAILLAG1,
                    CREA_GROUP_NO=_F(GROUP_MA='SURFSUP',),
                    );

#----------------------------------------------
#                   MODELE ET FISSURE
#----------------------------------------------

MODELEIN=AFFE_MODELE(MAILLAGE=MAILLAG1,
                     AFFE=(_F(GROUP_MA=('VOL',),
                              PHENOMENE='MECANIQUE',
                              MODELISATION='3D',),
                           _F(GROUP_MA=('SURFINF','SURFSUP',),
                              PHENOMENE='MECANIQUE',
                              MODELISATION='3D',),),);

MAILLAG1=MODI_MAILLAGE(reuse =MAILLAG1,
                       MAILLAGE=MAILLAG1,
                       ORIE_PEAU_3D=_F(GROUP_MA=('SURFSUP','SURFINF',),),
                       );

LN=FORMULE(NOM_PARA=('X','Y','Z'),VALE='Z-15.');
LT=FORMULE(NOM_PARA=('X','Y','Z'),VALE='-Y+5.');

FISS=DEFI_FISS_XFEM(MODELE=MODELEIN,
                    DEFI_FISS=_F(FONC_LT=LT,FONC_LN=LN,),
                    INFO=1,
                    );

MODELEK=MODI_MODELE_XFEM(MODELE_IN=MODELEIN,FISSURE=FISS,INFO=1,);


#----------------------------------------------
#                   MATERIAU
#----------------------------------------------

E=205000.0E6
nu=0.
rho=7800.
ACIER=DEFI_MATERIAU(ELAS=_F(E=E,NU=nu,RHO=rho,),);

CHAMPMA1=AFFE_MATERIAU(MAILLAGE=MAILLAG1,
                       MODELE=MODELEK,
                       AFFE=_F(TOUT = 'OUI',
                                MATER=ACIER,
                                ),
                             );

#----------------------------------------------
#                   CHARGEMENTS
#----------------------------------------------

PRES=-1.E6
CHB=AFFE_CHAR_MECA(MODELE=MODELEK,
                   LIAISON_DDL=(_F(NOEUD=('N4031','N3876',),
                                   DDL=('DX','DX',),
                                   COEF_MULT=(1.0,1.0),
                                   COEF_IMPO=0.0,),
                                _F(NOEUD=('N4031','N3876',),
                                   DDL=('DY','DY',),
                                   COEF_MULT=(1.0,1.0),
                                   COEF_IMPO=0.0,),
                                _F(NOEUD=('N4031','N3876',),
                                   DDL=('DZ','DZ',),
                                   COEF_MULT=(1.0,1.0),
                                   COEF_IMPO=0.0,),
                                _F(NOEUD=('N3886','N4041',),
                                   DDL=('DX','DX',),
                                   COEF_MULT=(1.0,1.0),
                                   COEF_IMPO=0.0,),
                                _F(NOEUD=('N3886','N4041',),
                                   DDL=('DZ','DZ',),
                                   COEF_MULT=(1.0,1.0),
                                   COEF_IMPO=0.0,),
                                _F(NOEUD=('N9768','N9767',),
                                   DDL=('DZ','DZ',),
                                   COEF_MULT=(1.0,1.0),
                                   COEF_IMPO=0.0,),
                             ),)


CH1=AFFE_CHAR_MECA(MODELE=MODELEK,
                PRES_REP=_F(GROUP_MA=('SURFSUP','SURFINF'),PRES=PRES))

#                   3) PRESSION CONSTANTE SUR LES LEVRES
CHPRES=AFFE_CHAR_MECA(MODELE=MODELEK,PRES_REP=_F(FISSURE=FISS,PRES=1.e6))

#                   4) PRESSION FONCTION SUR LES LEVRES
PRESF=FORMULE(NOM_PARA=('X','Y','Z'),VALE='1.e6*(1.-X)')
CHPRESF=AFFE_CHAR_MECA_F(MODELE=MODELEK,PRES_REP=_F(FISSURE=FISS,PRES=PRESF))


#----------------------------------------------
#                   RESOLUTION
#----------------------------------------------

L_INS1=DEFI_LIST_REEL(DEBUT=0.0,INTERVALLE=_F(JUSQU_A=1.0,NOMBRE=1))

UTOT1x=MECA_STATIQUE(MODELE=MODELEK,
                   CHAM_MATER=CHAMPMA1,
                   EXCIT=(
                          _F(CHARGE=CHB),
                          _F(CHARGE=CH1),
                          ),
                   ); 

UTOT2x=MECA_STATIQUE(MODELE=MODELEK,
                   CHAM_MATER=CHAMPMA1,
                   EXCIT=(
                          _F(CHARGE=CHB),
                          _F(CHARGE=CHPRES),
                          ),
                   ); 

UTOT3x=MECA_STATIQUE(MODELE=MODELEK,
                   CHAM_MATER=CHAMPMA1,
                   EXCIT=(
                          _F(CHARGE=CHB),
                          _F(CHARGE=CHPRESF),
                          ),
                   ); 

#------------------------------------------------------------------------
# POST-TRAITEMENT : CALCUL DES SIFS PAR LA METHODE ENERGETIQUE AVEC X-FEM
#------------------------------------------------------------------------

# TEST AVEC PLUSIEURS COURONNES
RI=[2. , 0.666 , 1. , 1. , 1. , 2.1]
RS=[4. , 1.666 , 2. , 3. , 4. , 3.9]

nbc=len(RI)
SIF1   = [None]*nbc
SIF1_R = [None]*nbc
SIF2   = [None]*nbc
SIF3   = [None]*nbc

for i in range(0,nbc) :

   SIF1[i]=CALC_G(RESULTAT=UTOT1x,
                 OPTION='CALC_K_G',
                 THETA=_F(FISSURE=FISS,
                          R_INF=RI[i],
                          R_SUP=RS[i],),
                 LISSAGE=_F(LISSAGE_THETA='LAGRANGE',
                            LISSAGE_G='LAGRANGE',),
                 INFO=2,);

   IMPR_TABLE(TABLE=SIF1[i],);

   SIF1_R[i]=CALC_G(RESULTAT=UTOT1x,
                 OPTION='CALC_K_G',
                 THETA=_F(FISSURE=FISS,
                          R_INF=RI[i],
                          R_SUP=RS[i],),
                 LISSAGE=_F(LISSAGE_THETA='LAGRANGE_REGU',
                            LISSAGE_G='LAGRANGE_REGU',),
                 INFO=2,);

   IMPR_TABLE(TABLE=SIF1_R[i],);

   SIF2[i]=CALC_G(RESULTAT=UTOT2x,
                  OPTION='CALC_K_G',
                  LISSAGE = _F(LISSAGE_THETA='LAGRANGE',
                               LISSAGE_G='LAGRANGE',),
                  THETA=_F(R_INF=RI[i],
                           R_SUP=RS[i],
                  FISSURE=FISS,),);

   IMPR_TABLE(TABLE=SIF2[i],);

   SIF3[i]=CALC_G(RESULTAT=UTOT3x,
                  OPTION='CALC_K_G',
                  LISSAGE = _F(LISSAGE_THETA='LAGRANGE',
                               LISSAGE_G='LAGRANGE',),
                  THETA=_F(R_INF=RI[i],
                           R_SUP=RS[i],
                  FISSURE=FISS,),);

   IMPR_TABLE(TABLE=SIF3[i],);

# test sans R_INF et R_SUP
SIF1_S=CALC_G(RESULTAT=UTOT1x,
              OPTION='CALC_K_G',
              THETA=_F(FISSURE=FISS,),
              LISSAGE=_F(LISSAGE_THETA='LAGRANGE',
                         LISSAGE_G='LAGRANGE',),
              INFO=2,);

IMPR_TABLE(TABLE=SIF1_S,);

# test de LAGRANGE_NO_NO
SIF1_N=CALC_G(RESULTAT=UTOT1x,
              OPTION='CALC_K_G',
              THETA=_F(FISSURE=FISS,
                       R_INF=RI[0],
                       R_SUP=RS[0],),
              LISSAGE=_F(LISSAGE_THETA='LAGRANGE',
                         LISSAGE_G='LAGRANGE_NO_NO',),
              )

IMPR_TABLE(TABLE=SIF1_N);

# unique test de CALC_G, option CALC_G avec pression sur levres
G2=CALC_G(RESULTAT=UTOT2x,
          THETA=_F(FISSURE=FISS,
                   R_INF=RI[0],
                   R_SUP=RS[0],),
          LISSAGE=_F(LISSAGE_THETA='LAGRANGE',
                     LISSAGE_G='LAGRANGE',),
          )

IMPR_TABLE(TABLE=G2)



# SOLUTION ANALYTIQUE (chaboche p.53) (chargement 1 et 3)
a=5
b=10
coef=(pi*a)/(2.*b)
fab=sqrt(tan(coef)/coef)*(0.752+0.37*(1.-sin(coef))**3+2.02*a/b)/cos(coef)
K1REF=-PRES*sqrt(pi*a)*fab

Gref = (1-nu**2)/E * K1REF**2

# POUR LE CHARGEMENT 4, AUTRE ASTER (REFERENCE : MODELISATION A)
# AU POINT INITIAL DU FOND DE FISSURE
K1REF4I=5.99e6
# AU POINT FINAL DU FOND DE FISSURE
K1REF4F=4.52e6

VAL_CALC = [ 1.0838727330386E+07   ,
             1.0793316431512E+07   ,
             1.083251346649E+07    ,
             1.0757334265239E+07   ,
             1.0838307072814E+07   ,
             1.0794476985583E+07   ,
             6.1088775615142E+06   ,
             4.7021907320084E+06   ,
             1.087162628482E+07    ,
             1.0826005294127E+07   ,
             1.0865138516704E+07   ,
             1.079037720216E+07    ,
             1.0871078366581E+07   ,
             1.0827043603397E+07   ,
             6.1298524554832E+06   ,
             4.7138659280483E+06   ,
             1.0832403222393E+07   ,
             1.0786806688639E+07   ,
             1.0826152794032E+07   ,
             1.0750720597351E+07   ,
             1.0831997187059E+07   ,
# ... 26 like lines cut
             4.7022146804181E+06   ]

for i in range(0,nbc) :
   TEST_TABLE(TABLE=SIF1[i],
              NOM_PARA='K1',
              TYPE_TEST='MAX',
              VALE_CALC=VAL_CALC[i*8+0], VALE_REFE=K1REF,
              CRITERE='RELATIF',
              PRECISION=0.04,
              REFERENCE='ANALYTIQUE',);

   TEST_TABLE(TABLE=SIF1[i],
              NOM_PARA='K1',
              TYPE_TEST='MIN',
              VALE_CALC=VAL_CALC[i*8+1], VALE_REFE=K1REF,
              CRITERE='RELATIF',
              PRECISION=0.04,
              REFERENCE='ANALYTIQUE',);

   TEST_TABLE(TABLE=SIF1_R[i],
              NOM_PARA='K1',
              TYPE_TEST='MAX',
              VALE_CALC=VAL_CALC[i*8+2],
              CRITERE='RELATIF',
             )   #TODO NON_DEFINI

   TEST_TABLE(TABLE=SIF1_R[i],
              NOM_PARA='K1',
              TYPE_TEST='MIN',
              VALE_CALC=VAL_CALC[i*8+3],
              CRITERE='RELATIF',
             )  #TODO NON_DEFINI

   TEST_TABLE(TABLE=SIF2[i],
              NOM_PARA='K1',
              TYPE_TEST='MAX', 
              VALE_CALC=VAL_CALC[i*8+4], VALE_REFE=K1REF,
              CRITERE='RELATIF',
              PRECISION=0.04,
              REFERENCE='ANALYTIQUE',);

   TEST_TABLE(TABLE=SIF2[i],
              NOM_PARA='K1',
              TYPE_TEST='MIN',  
              VALE_CALC=VAL_CALC[i*8+5], VALE_REFE=K1REF,
              CRITERE='RELATIF',
              PRECISION=0.04,
              REFERENCE='ANALYTIQUE',);

   TEST_TABLE(TABLE=SIF3[i],
              NOM_PARA='K1',
              FILTRE=_F(NOM_PARA='NUM_PT',VALE_I=6),
              VALE_CALC=VAL_CALC[i*8+6], VALE_REFE=K1REF4I,
              CRITERE='RELATIF',
              PRECISION=0.04,
              REFERENCE='AUTRE_ASTER',);

   TEST_TABLE(TABLE=SIF3[i],
              NOM_PARA='K1',
              FILTRE=_F(NOM_PARA='NUM_PT',VALE_I=1,),
              VALE_CALC=VAL_CALC[i*8+7], VALE_REFE=K1REF4F,
              CRITERE='RELATIF',
              PRECISION=0.05,
              REFERENCE='AUTRE_ASTER',);

TEST_TABLE(CRITERE='RELATIF',
           REFERENCE='ANALYTIQUE',
           PRECISION=0.040000000000000001,
           VALE_CALC= 1.0896653919764E+07,
           VALE_REFE=1.1202664084020415E7,
           NOM_PARA='K1',
           TYPE_TEST='MAX',
           TABLE=SIF1_S,)

TEST_TABLE(CRITERE='RELATIF',
           REFERENCE='ANALYTIQUE',
           PRECISION=0.040000000000000001,
           VALE_CALC= 1.0851039764396E+07,
           VALE_REFE=1.1202664084020415E7,
           NOM_PARA='K1',
           TYPE_TEST='MIN',
           TABLE=SIF1_S,)

TEST_TABLE(CRITERE='RELATIF',
           REFERENCE='ANALYTIQUE',
           PRECISION=0.040000000000000001,
           VALE_CALC= 1.0850368688597E+07,
           VALE_REFE=1.1202664084020415E7,
           NOM_PARA='K1',
           TYPE_TEST='MAX',
           TABLE=SIF1_N,)

TEST_TABLE(CRITERE='RELATIF',
           REFERENCE='ANALYTIQUE',
           PRECISION=0.040000000000000001,
           VALE_CALC= 1.078659168066E+07,
           VALE_REFE=1.1202664084020415E7,
           NOM_PARA='K1',
           TYPE_TEST='MIN',
           TABLE=SIF1_N,)

TEST_TABLE(CRITERE='RELATIF',
           REFERENCE='ANALYTIQUE',
           PRECISION=0.080000000000000002,
           VALE_CALC=581.71061748621,
           VALE_REFE=612.19357355805357,
           NOM_PARA='G',
           TYPE_TEST='MAX',
           TABLE=G2,)

TEST_TABLE(CRITERE='RELATIF',
           REFERENCE='ANALYTIQUE',
           PRECISION=0.080000000000000002,
           VALE_CALC=567.61455277972,
           VALE_REFE=612.19357355805357,
           NOM_PARA='G',
           TYPE_TEST='MIN',
           TABLE=G2,)

#----------------------------------------------------------------------
# POST-TRAITEMENT : CALCUL DES SIFS AVEC POST_K1_K2_K3
#------------------------------------------------------------------------

PK=POST_K1_K2_K3(MODELISATION='3D',
                     MATER=ACIER,
                     FISSURE = FISS,
                     RESULTAT  = UTOT1x,
                     NB_NOEUD_COUPE = 6,
                    )

IMPR_TABLE(TABLE = PK)

TEST_TABLE(REFERENCE='ANALYTIQUE',
           PRECISION=0.059999999999999998,
           VALE_CALC= 1.0722269766792E+07,
           VALE_REFE=1.1202664084020415E7,
           NOM_PARA='K1',
           TABLE=PK,
           FILTRE=(_F(NOM_PARA='NUM_PT',
                      VALE_I=1,),
                   _F(NOM_PARA='INST',
                      VALE=0.0,),
                   ),
           )

#------------------------------------------------------------------------
# POST-TRAITEMENT : MAILLAGE FISSURE
#------------------------------------------------------------------------

MA_XFEM=POST_MAIL_XFEM(
                       MODELE        = MODELEK,
                       INFO          = 2)

TABDEP=POST_RELEVE_T(ACTION=_F(INTITULE='DEPLE',
                               GROUP_NO='VOL',
                               RESULTAT=UTOT1x,
                               NOM_CHAM='DEPL',
                               NUME_ORDRE=1,
                               NOM_CMP='DX',
                               OPERATION='EXTRACTION',),);

# TEST DE NON REGRESSION PAR RAPPORT A LA VERSION 8.2.14

DXREF=4.992e+03
DYREF=4.99200e+04
DZREF=1.497600051e+05
PREC=1.e-10

TEST_TABLE(CRITERE='RELATIF',
           VALE_CALC=4992.0,
           NOM_PARA='COOR_X',
           TYPE_TEST='SOMM_ABS',
           TABLE=TABDEP,
           )

TEST_TABLE(CRITERE='RELATIF',
           VALE_CALC=4.9920E4,
           NOM_PARA='COOR_Y',
           TYPE_TEST='SOMM_ABS',
           TABLE=TABDEP,
           )

TEST_TABLE(CRITERE='RELATIF',
           VALE_CALC=1.4976000510000001E5,
           NOM_PARA='COOR_Z',
           TYPE_TEST='SOMM_ABS',
           TABLE=TABDEP,
           )

#------------------------------------------------------------------------
# POST-TRAITEMENT : DEPLACEMENTS POUR LE MAILLAGE FISSURE
#------------------------------------------------------------------------

MOD_VISU=AFFE_MODELE(MAILLAGE=MA_XFEM,
                     AFFE=_F(TOUT='OUI',
                              PHENOMENE='MECANIQUE',
                              MODELISATION='3D',),) 

RES_XFEM=POST_CHAM_XFEM(MODELE_VISU   = MOD_VISU,
                        RESULTAT      = UTOT1x,
                        
                        INFO          = 2)

DEFI_FICHIER(UNITE=82);

TEST_RESU(RESU=(_F(NUME_ORDRE=1,
                   TYPE_TEST='SOMM_ABS',
                   RESULTAT=RES_XFEM,
                   NOM_CHAM='DEPL',
                   NOM_CMP='DX',
                   VALE_CALC=1.2508283197173E-3,                   
                   CRITERE='RELATIF',
                   ),
                _F(NUME_ORDRE=1,
                   TYPE_TEST='SOMM_ABS',
                   RESULTAT=RES_XFEM,
                   NOM_CHAM='DEPL',
                   NOM_CMP='DY',
                   VALE_CALC=1.793467822889,                   
                   CRITERE='RELATIF',
                   ),
                _F(NUME_ORDRE=1,
                   TYPE_TEST='SOMM_ABS',
                   RESULTAT=RES_XFEM,
                   NOM_CHAM='DEPL',
                   NOM_CMP='DZ',
                   VALE_CALC=1.5347818210496,                   
                   CRITERE='RELATIF',
                   ),
                ),
          )

FIN();
