# TITRE VALIDATION DE LA LOI HYPER-ELASTIQUE SUR UNE LANIERE - D_PLAN
# ======================================================================
# COPYRIGHT (C) 1991 - 2013  EDF R&D                  WWW.CODE-ASTER.ORG
# THIS PROGRAM IS FREE SOFTWARE; YOU CAN REDISTRIBUTE IT AND/OR MODIFY
# IT UNDER THE TERMS OF THE GNU GENERAL PUBLIC LICENSE AS PUBLISHED BY
# THE FREE SOFTWARE FOUNDATION; EITHER VERSION 2 OF THE LICENSE, OR
# (AT YOUR OPTION) ANY LATER VERSION.
#
# THIS PROGRAM IS DISTRIBUTED IN THE HOPE THAT IT WILL BE USEFUL, BUT
# WITHOUT ANY WARRANTY; WITHOUT EVEN THE IMPLIED WARRANTY OF
# MERCHANTABILITY OR FITNESS FOR A PARTICULAR PURPOSE. SEE THE GNU
# GENERAL PUBLIC LICENSE FOR MORE DETAILS.
#
# YOU SHOULD HAVE RECEIVED A COPY OF THE GNU GENERAL PUBLIC LICENSE
# ALONG WITH THIS PROGRAM; IF NOT, WRITE TO EDF R&D CODE_ASTER,
#    1 AVENUE DU GENERAL DE GAULLE, 92141 CLAMART CEDEX, FRANCE.
# ======================================================================


DEBUT( CODE=_F(NIV_PUB_WEB='INTERNET') );


maillage=LIRE_MAILLAGE(FORMAT='MED',VERI_MAIL=_F(APLAT=1.E-3,),);

maillage=DEFI_GROUP(reuse =maillage,
                    MAILLAGE=maillage,
                    CREA_GROUP_NO=_F(TOUT_GROUP_MA='OUI',),);

modmeca=AFFE_MODELE(MAILLAGE=maillage,
                    AFFE=_F(TOUT='OUI',
                            PHENOMENE='MECANIQUE',
                            MODELISATION='D_PLAN',),);

mat=DEFI_MATERIAU(ELAS_HYPER=_F(C10=2.668,
                                C01=0.271,
                                C20=0.466,
                                K=2939,
                                RHO=1000.0),);

chmat=AFFE_MATERIAU(MAILLAGE=maillage,
                    AFFE=_F(TOUT='OUI',
                            MATER=mat,),);

encastr=AFFE_CHAR_MECA(MODELE=modmeca,
                       DDL_IMPO=(_F(GROUP_MA='L4',
                                    DX=0,
                                    DY=0,),
                                 _F(GROUP_MA='L2',
                                    DX=0,
                                    DY=50.0,),),);

L_INST=DEFI_LIST_REEL(DEBUT=0.0,
                      INTERVALLE=_F(JUSQU_A=1.0,
                                    NOMBRE=20,),);
l=DEFI_FONCTION(NOM_PARA='INST',
                VALE=(0.0,0.0,1.0,1.0,),);

DEFLIST =DEFI_LIST_INST(DEFI_LIST=_F(LIST_INST = L_INST),
                        ECHEC=_F(ACTION        = 'DECOUPE',
                                 SUBD_METHODE  = 'MANUEL',
                                 SUBD_PAS=10,
                                 SUBD_PAS_MINI = 1e-5),)

RESU=STAT_NON_LINE(MODELE=modmeca,
                   CHAM_MATER=chmat,
                   EXCIT=_F(CHARGE=encastr,
                            FONC_MULT=l,),
                   COMPORTEMENT=_F(RELATION='ELAS_HYPER',
                                DEFORMATION='GROT_GDEP',
                                TOUT='OUI',),
                   INCREMENT=_F(LIST_INST=DEFLIST,
                                INST_FIN=1.0,),
                   ARCHIVAGE=_F(LIST_INST=L_INST,),);

RESU=CALC_CHAMP(reuse=RESU,RESULTAT=RESU,CONTRAINTE=('SIGM_ELNO'),DEFORMATION=('EPSG_ELNO'))




RESU=CALC_CHAMP(reuse =RESU,
             RESULTAT=RESU,
             FORCE='FORC_NODA',

             );

LH=INTE_MAIL_2D(MAILLAGE=maillage,
                DEFI_CHEMIN=_F(GROUP_MA='L2',),);

TAB_FORC=POST_RELEVE_T(ACTION=_F(INTITULE='FORCE',
                                 CHEMIN=LH,
                                 RESULTAT=RESU,
                                 NOM_CHAM='FORC_NODA',
                                 LIST_INST=L_INST,
                                 RESULTANTE='DY',
                                 OPERATION='EXTRACTION',),);

IMPR_TABLE(TABLE=TAB_FORC)

FYA=RECU_FONCTION(TABLE=TAB_FORC,
                  PARA_X='INST',
                  PARA_Y='DY',);

DYA=RECU_FONCTION(RESULTAT=RESU,
                  NOM_CHAM='DEPL',
                  NOM_CMP='DY',
                  NOEUD='N1',);

IMPR_FONCTION(FORMAT='XMGRACE',
              COURBE=_F(FONC_X=DYA,
                        FONC_Y=FYA,),);

TEST_FONCTION(VALEUR=_F(VALE_CALC=229.3379,
                        VALE_REFE=229.336,
                        CRITERE='RELATIF',
                        VALE_PARA=1.0,
                        REFERENCE='SOURCE_EXTERNE',
                        FONCTION=FYA,),
              )

FIN();
