# TITRE LBB CONDITION ET CONTACT FROTTANT AVEC X-FEM
# ======================================================================
# COPYRIGHT (C) 1991 - 2012  EDF R&D                  WWW.CODE-ASTER.ORG
# THIS PROGRAM IS FREE SOFTWARE; YOU CAN REDISTRIBUTE IT AND/OR MODIFY  
# IT UNDER THE TERMS OF THE GNU GENERAL PUBLIC LICENSE AS PUBLISHED BY  
# THE FREE SOFTWARE FOUNDATION; EITHER VERSION 2 OF THE LICENSE, OR     
# (AT YOUR OPTION) ANY LATER VERSION.                                                    
#                                                                       
# THIS PROGRAM IS DISTRIBUTED IN THE HOPE THAT IT WILL BE USEFUL, BUT   
# WITHOUT ANY WARRANTY; WITHOUT EVEN THE IMPLIED WARRANTY OF            
# MERCHANTABILITY OR FITNESS FOR A PARTICULAR PURPOSE. SEE THE GNU      
# GENERAL PUBLIC LICENSE FOR MORE DETAILS.                              
#                                                                       
# YOU SHOULD HAVE RECEIVED A COPY OF THE GNU GENERAL PUBLIC LICENSE     
# ALONG WITH THIS PROGRAM; IF NOT, WRITE TO EDF R&D CODE_ASTER,         
#    1 AVENUE DU GENERAL DE GAULLE, 92141 CLAMART CEDEX, FRANCE.        
# ======================================================================

DEBUT(CODE=_F(NOM='SSNV186M',NIV_PUB_WEB='INTERNET'),DEBUG=_F(SDVERI='OUI'))

MA0=LIRE_MAILLAGE(INFO=1,
                  FORMAT='MED');

MA0=DEFI_GROUP(reuse =MA0,
                    MAILLAGE=MA0,
                   CREA_GROUP_NO=(_F(GROUP_MA='VOL'),
                                   _F(GROUP_MA='SURFSUP')))              

MA0=MODI_MAILLAGE(reuse =MA0,
                       MAILLAGE=MA0,
                       ORIE_PEAU_3D=_F(GROUP_MA=('SURFSUP','SURFINF')))

MODELEIN=AFFE_MODELE(MAILLAGE=MA0,
                     AFFE=(_F(GROUP_MA=('VOL'),
                              PHENOMENE='MECANIQUE',
                              MODELISATION='3D'),
                           _F(GROUP_MA=('SURFINF','SURFSUP'),
                              PHENOMENE='MECANIQUE',
                              MODELISATION='3D')));

LN=FORMULE(NOM_PARA=('X','Y','Z'),VALE='Z-17.5');

FISS=DEFI_FISS_XFEM(MODELE=MODELEIN,
                    TYPE_DISCONTINUITE='INTERFACE',
                    DEFI_FISS=_F(FONC_LN=LN));

MODELEK=MODI_MODELE_XFEM(MODELE_IN=MODELEIN,
                         FISSURE=FISS,
                         CONTACT='P1P1',
                         INFO=1); 


CTXFEM = DEFI_CONTACT(MODELE         = MODELEK,
                      FORMULATION    = 'XFEM',
                      FROTTEMENT     = 'COULOMB',
                      ITER_CONT_MAXI = 4,
                      ITER_FROT_MAXI = 6,
                      REAC_GEOM      = 'SANS',
                      ZONE=(
                            _F(
                               FISS_MAIT    = FISS,
                               INTEGRATION  = 'GAUSS',
                               ORDRE_INT=3,
                               CONTACT_INIT = 'OUI',
                               COULOMB      = 1.0,
                               SEUIL_INIT   = -5,
                               ALGO_CONT    = 'STANDARD',
                               COEF_CONT    = 100.,
                               ALGO_FROT    = 'STANDARD',
                               COEF_FROT    = 1000.,                                   
                               ALGO_LAGR    = 'VERSION2',
                             ), 
                         ),
                   );

E=1.0E11
nu=0.
ACIER=DEFI_MATERIAU(ELAS=_F(E=E,NU=nu,RHO=7800.0));

CHAMPMAT=AFFE_MATERIAU(MAILLAGE=MA0,
                       MODELE=MODELEK,
                       AFFE=_F(GROUP_MA=('VOL','SURFINF','SURFSUP'),
                                MATER=ACIER,
                                ));

PRES=100.
FCTPRES=FORMULE(NOM_PARA=('X','Y','Z'),VALE='(PRES-(Y-10.)*(Y-10.)/2.)*E/1e6');

CH1=AFFE_CHAR_MECA(MODELE=MODELEK,
                   DDL_IMPO=(_F(GROUP_MA='SURFINF',DX=0.0,DY=0.0,DZ=0.0),
                             _F(GROUP_MA='SURFSUP',DX=0.0,DY=0.0)),
                    INFO=1);

CHF=AFFE_CHAR_MECA_F(MODELE=MODELEK,
                     PRES_REP=_F(GROUP_MA='SURFSUP',
                                 PRES=FCTPRES),
                      );


L_INST=DEFI_LIST_REEL(DEBUT=0.0,
                      INTERVALLE=_F(JUSQU_A=1.0,
                                    NOMBRE=1));

UTOT1=STAT_NON_LINE(MODELE=MODELEK,
                   CHAM_MATER=CHAMPMAT,
                   EXCIT=(_F(CHARGE=CH1),
                          _F(CHARGE=CHF)),
                   CONTACT  = CTXFEM ,      
                   COMP_ELAS=_F(RELATION='ELAS',
                                GROUP_MA='VOL'),
                   INCREMENT=_F(LIST_INST=L_INST),
                   SOLVEUR=_F(METHODE='MUMPS',
                              ),
                   NEWTON=_F(REAC_ITER=1),
                   ARCHIVAGE=_F(CHAM_EXCLU='VARI_ELGA'),
                   INFO=1);

# -------------------------------------------------------------   
#            POST-TRAITEMENT POUR LA VISUALISATION X-FEM   
# -------------------------------------------------------------   

MA_XFEM=POST_MAIL_XFEM(MODELE        = MODELEK,
                       PREF_GROUP_CO = 'NFISSU',
                       INFO          = 2)

MOD_VISU=AFFE_MODELE(MAILLAGE=MA_XFEM,
                     AFFE=_F(TOUT='OUI',
                              PHENOMENE='MECANIQUE',
                              MODELISATION='3D',),) 

RES_XFEM=POST_CHAM_XFEM(MODELE_VISU   = MOD_VISU,
                        RESULTAT      = UTOT1,
                        INFO          = 2)
 

LAG=POST_RELEVE_T(ACTION=_F(INTITULE='DEPLE',
                             GROUP_NO='NFISSU',
                             RESULTAT=RES_XFEM,
                             NOM_CHAM='DEPL',
                             NUME_ORDRE=1,
                             NOM_CMP=('LAGS_C','LAGS_F1','LAGS_F2'),
                             OPERATION='EXTRACTION'));

IMPR_TABLE(TABLE=LAG);
# LAREF A ETE OBTENUE PAR LA MODELISATION A EN VERSION 8.2.16
LAREF=-9.52844E6

# LA2REF EST LA SOLUTION ANALYTIQUE (PAS DE FROTTEMENT AU POINT MILIEU)
LA2REF=0.

TEST_TABLE(CRITERE='RELATIF',
           VALE_CALC=-9.5250948399678E+06,
           NOM_PARA='LAGS_C',
           TYPE_TEST='MIN',
           TABLE=LAG,
           FILTRE=(_F(CRIT_COMP='EQ',
                      NOM_PARA='COOR_X',
                      VALE=0.0,),
                   _F(CRIT_COMP='EQ',
                      NOM_PARA='COOR_Y',
                      VALE=10.0,),
                   _F(CRIT_COMP='EQ',
                      NOM_PARA='COOR_Z',
                      VALE=17.5,),
                   ),
           )

TEST_TABLE(CRITERE='ABSOLU',
           REFERENCE='ANALYTIQUE',
           PRECISION=5.0E-3,
           VALE_CALC=-4.117197941798E-03 ,
           VALE_REFE=0.0,
           TYPE_TEST='MAX',
           NOM_PARA='LAGS_F2',
           TABLE=LAG,
           FILTRE=(_F(CRIT_COMP='EQ',
                      NOM_PARA='COOR_X',
                      VALE=0.0,),
                   _F(CRIT_COMP='EQ',
                      NOM_PARA='COOR_Y',
                      VALE=10.0,),
                   _F(CRIT_COMP='EQ',
                      NOM_PARA='COOR_Z',
                      VALE=17.5,),
                   ),
           )

TEST_TABLE(CRITERE='ABSOLU',
           REFERENCE='ANALYTIQUE',
           PRECISION=5.0E-3,
           VALE_CALC=-4.117197941798E-03,
           VALE_REFE=0.0,
           TYPE_TEST='MAX',
           NOM_PARA='LAGS_F2',
           TABLE=LAG,
           FILTRE=(_F(CRIT_COMP='EQ',
                      NOM_PARA='COOR_X',
                      VALE=0.0,),
                   _F(CRIT_COMP='EQ',
                      NOM_PARA='COOR_Y',
                      VALE=10.0,),
                   _F(CRIT_COMP='EQ',
                      NOM_PARA='COOR_Z',
                      VALE=17.5,),
                   ),
           )
FIN();
