# TITRE ESSAI DE RELAXATION EN 3D VENDOCHAB
#            CONFIGURATION MANAGEMENT OF EDF VERSION
# ======================================================================
# COPYRIGHT (C) 1991 - 2012  EDF R&D                  WWW.CODE-ASTER.ORG
# THIS PROGRAM IS FREE SOFTWARE; YOU CAN REDISTRIBUTE IT AND/OR MODIFY
# IT UNDER THE TERMS OF THE GNU GENERAL PUBLIC LICENSE AS PUBLISHED BY
# THE FREE SOFTWARE FOUNDATION; EITHER VERSION 2 OF THE LICENSE, OR
# (AT YOUR OPTION) ANY LATER VERSION.
#
# THIS PROGRAM IS DISTRIBUTED IN THE HOPE THAT IT WILL BE USEFUL, BUT
# WITHOUT ANY WARRANTY; WITHOUT EVEN THE IMPLIED WARRANTY OF
# MERCHANTABILITY OR FITNESS FOR A PARTICULAR PURPOSE. SEE THE GNU
# GENERAL PUBLIC LICENSE FOR MORE DETAILS.
#
# YOU SHOULD HAVE RECEIVED A COPY OF THE GNU GENERAL PUBLIC LICENSE
# ALONG WITH THIS PROGRAM; IF NOT, WRITE TO EDF R&D CODE_ASTER,
#    1 AVENUE DU GENERAL DE GAULLE, 92141 CLAMART CEDEX, FRANCE.
# ======================================================================
#----------------------------------------------------------------------
#    TEST MODELE VISCO-PLASTIQUE COUPLE AVEC L'ENDOMMAGEMENT
#     ISOTROPE DE CHABOCHE EN ANISOTHERME ( VENDOCHAB)
#    ESSAI EN TRACTION (RELAXATION) IMPLICITE
#    DEPLACEMENT IMPOSE A TEMPERATURE ANISOTHERME DANS LE TEMPS
#----------------------------------------------------------------------
#         ELEMENT HEXA 8 NOEUDS EN TRACTION
#              ETAT UNIAXIAL DE CONTRAINTE DEFORMATION
#       UNITES : NEWTON , MILLIMETRE , SECONDE (N,MM,S,->MPA)
#
#               Z       A                     A = 3 MM
#               L<------------->
#               L                             L = 30 MM
#                / N5            N8
#              >O--------------O      X
#              /L             /L      L
#         N6  / L         N7 / L      L
#           >O--+-----------O  L      L
#            L  L           L  L      L
#            L  L           L  L      L
#            L  L           L  L      L  L
#            L  L           L  L      L
#            L  L           L  L      L
#            L  L           L  L      L
#            L  L           L  L      L
#            L  L           L  L      L
#            L  L           L  L      L
#            L  L/ N1       L  L N4   L
#            L >O-----------L--O-> Y  V
#            L /V           L /
#         N2 L/          N3 L/
#           >O--------------O
#
#          /
#         X
#
#----------------------------------------------------------------------
#
#

DEBUT(CODE=_F(NOM='SSNV126C',NIV_PUB_WEB='INTERNET'),DEBUG=_F(SDVERI='OUI'))

#----------------------------------------------------------------------
#              TEST MODELE VENDOCHAB 3D
#      PAS DE CHARGEMENT THERMIQUE (ALPHA = 0 )
#      RELAXATION D UNE EPROUVETTE PARRALELIPIPEDIQUE
#      EN TRACTION UNIAXIALE
#      CHAMPS DE TEMPERATURE ANISOTHERME
#      K_D NE DEPEND QUE DE LA TEMPERATURE (FONCTION)
#----------------------------------------------------------------------
#
EPROU=LIRE_MAILLAGE( )

CT1=CREA_CHAMP(  OPERATION='AFFE', TYPE_CHAM='NOEU_TEMP_R',
    MAILLAGE=EPROU,AFFE=(
   _F(   NOEUD = 'N1',      NOM_CMP = 'TEMP', VALE = 1000.),
   _F(   NOEUD = 'N2',      NOM_CMP = 'TEMP', VALE = 1000.),
   _F(   NOEUD = 'N3',      NOM_CMP = 'TEMP', VALE = 1000.),
   _F(   NOEUD = 'N4',      NOM_CMP = 'TEMP', VALE = 1000.),
   _F(   NOEUD = 'N5',      NOM_CMP = 'TEMP', VALE = 1000.),
   _F(   NOEUD = 'N6',      NOM_CMP = 'TEMP', VALE = 1000.),
   _F(   NOEUD = 'N7',      NOM_CMP = 'TEMP', VALE = 1000.),
   _F(   NOEUD = 'N8',      NOM_CMP = 'TEMP', VALE = 1000.))
  )

CT2=CREA_CHAMP(  OPERATION='AFFE', TYPE_CHAM='NOEU_TEMP_R',
    MAILLAGE=EPROU,AFFE=(
   _F(   NOEUD = 'N1',      NOM_CMP = 'TEMP', VALE = 1025.),
   _F(   NOEUD = 'N2',      NOM_CMP = 'TEMP', VALE = 1025.),
   _F(   NOEUD = 'N3',      NOM_CMP = 'TEMP', VALE = 1025.),
   _F(   NOEUD = 'N4',      NOM_CMP = 'TEMP', VALE = 1025.),
   _F(   NOEUD = 'N5',      NOM_CMP = 'TEMP', VALE = 1025.),
   _F(   NOEUD = 'N6',      NOM_CMP = 'TEMP', VALE = 1025.),
   _F(   NOEUD = 'N7',      NOM_CMP = 'TEMP', VALE = 1025.),
   _F(   NOEUD = 'N8',      NOM_CMP = 'TEMP', VALE = 1025.))
  )

CTHER=CREA_RESU(    OPERATION='AFFE', TYPE_RESU='EVOL_THER',
                      NOM_CHAM='TEMP',AFFE=(

              _F(  CHAM_GD = CT1,   INST = 0.0),
              _F(  CHAM_GD = CT1,   INST = 200000.0),
              _F(  CHAM_GD = CT2,   INST = 2000000.0),
              _F(  CHAM_GD = CT2,   INST = 3000000.0))
  )

EPD3=AFFE_MODELE(            MAILLAGE=EPROU,
                                    AFFE=_F(   PHENOMENE = 'MECANIQUE',
                                            MODELISATION = '3D',
                                            MAILLE = 'MA1'))

SEUIL=DEFI_CONSTANTE(   VALE=0.)

A1=DEFI_CONSTANTE(   VALE=0.)

A2=DEFI_CONSTANTE(   VALE=0.)

N_T=DEFI_FONCTION(      NOM_PARA='TEMP',
                            PROL_DROITE='CONSTANT',
                           PROL_GAUCHE='CONSTANT',
                          VALE=( 900.,     12.2,
                                 1000.,    10.8,
                                 1025.,    10.45,       ))

M_T=DEFI_FONCTION(      NOM_PARA='TEMP',
                            PROL_DROITE='CONSTANT',
                           PROL_GAUCHE='CONSTANT',
                          VALE=( 900.,    (1.0/10.5),
                                 1000.,   (1.0/9.8),
                                 1025.,   (1.0/9.625),       ))

K_T=DEFI_FONCTION(      NOM_PARA='TEMP',
                            PROL_DROITE='CONSTANT',
                           PROL_GAUCHE='CONSTANT',
                          VALE=( 900.,     (1.0/2110.),
                                 1000.,    (1.0/1450.),
                                 1025.,    (1.0/1285.),       ))

A_T=DEFI_FONCTION(      NOM_PARA='TEMP',
                            PROL_DROITE='CONSTANT',
                           PROL_GAUCHE='CONSTANT',
                          VALE=( 900.,     3191.62,
                                 1000.,    2511.35,
                                 1025.,    2341.3,     ))

R_T=DEFI_FONCTION(      NOM_PARA='TEMP',
                            PROL_DROITE='CONSTANT',
                           PROL_GAUCHE='CONSTANT',
                          VALE=( 900.,     6.3,
                                 1000.,    5.2,
                                 1025.,    4.925,       ))

KD_T=DEFI_FONCTION(      NOM_PARA='TEMP',
                            PROL_DROITE='LINEAIRE',
                           PROL_GAUCHE='LINEAIRE',
                          VALE=( 900.,    5.,
                                 1000.,   5.,
                                 1050.,   5., ))

F_E=DEFI_CONSTANTE(   VALE=150000.)

F_NU=DEFI_CONSTANTE(   VALE=0.3)

F_ALPHA=DEFI_CONSTANTE(   VALE=0.)

ACIER=DEFI_MATERIAU(      ELAS_FO=_F(    E = F_E,
                                         NU = F_NU,
                                         ALPHA = F_ALPHA, TEMP_DEF_ALPHA=1000.0,),


                         LEMAITRE_FO=_F(   N = N_T,
                                           UN_SUR_M = M_T,
                                           UN_SUR_K = K_T,),

                         VENDOCHAB_FO=_F(   SY = SEUIL,
                                           ALPHA_D = A1,
                                           BETA_D = A2,
                                           A_D = A_T,
                                           R_D = R_T,
                                           K_D = KD_T),

                                           )


LINST=DEFI_LIST_REEL(              DEBUT=0.,INTERVALLE=(

                           _F(  JUSQU_A = .2,        NOMBRE = 10),
                           _F(  JUSQU_A = 2.,        NOMBRE = 5),
                           _F(  JUSQU_A = 20.,       NOMBRE = 5),
                           _F(  JUSQU_A = 200.,      NOMBRE = 5),
                           _F(  JUSQU_A = 2000.,     NOMBRE = 5),
                           _F(  JUSQU_A = 20000.,    NOMBRE = 5),
                           _F(  JUSQU_A = 200000.,   NOMBRE = 5),
                           _F(  JUSQU_A = 1000000.,  NOMBRE = 10),
                           _F(  JUSQU_A = 1600000.,  NOMBRE = 10),
                           _F(  JUSQU_A = 1700000.,  NOMBRE = 10))
                                         )

COND_LIM=AFFE_CHAR_MECA(             MODELE=EPD3,
                                DDL_IMPO=(

                     _F( NOEUD = 'N1',         DX = 0., DY = 0., DZ = 0.),
                     _F( NOEUD = 'N2',                DY = 0., DZ = 0.),
                     _F( NOEUD = 'N3',                       DZ = 0.),
                     _F( NOEUD = 'N4',         DX = 0.,        DZ = 0.),
                     _F( NOEUD = 'N5',         DX = 0., DY = 0., DZ = 0.1),
                     _F( NOEUD = 'N6',                DY = 0., DZ = 0.1),
                     _F( NOEUD = 'N7',                       DZ = 0.1),
                     _F( NOEUD = 'N8',         DX = 0.,        DZ = 0.1))
                           )

COEF_TR=DEFI_FONCTION(      NOM_PARA='INST',
                                  VALE=(
                                            0.,   0.,
                                            0.1,  1.,
                                          100.,   1.,
                                      1500000.,   1.,
                                      2400000.,   1.,
                                      2450000.,   1.,
                                      3000000.,   1.,
                        ))

MAT=AFFE_MATERIAU(            MAILLAGE=EPROU,
                                    AFFE=_F(  MAILLE = 'MA1',
                                           MATER = ACIER,),
                                    AFFE_VARC=_F( TOUT='OUI',
                                           EVOL=CTHER,
                                           NOM_VARC='TEMP',
                                           NOM_CHAM='TEMP',
                                           VALE_REF=1000.),)


########################################################
# CALCUL EXPLICITE POUR ETABLIR LA SOLUTION DE REFERENCE
# LORSQUE KD_T NE DEPEND QUE DE T
########################################################


SOLNK=STAT_NON_LINE(
                             TITRE='TEST RELAXATION SIMPLE',
                            MODELE=EPD3,
                        CHAM_MATER=MAT,
                             EXCIT=_F(
                CHARGE = COND_LIM,
                FONC_MULT = COEF_TR),
                         COMP_INCR=_F(
                RELATION = 'VENDOCHAB',
                DEFORMATION = 'PETIT',
                RESI_INTE_RELA = 1.E-6,
                ITER_INTE_MAXI = 20,
                ALGO_INTE = 'RUNGE_KUTTA',
                TOUT = 'OUI'),
                         INCREMENT=_F(
                LIST_INST = LINST,
                NUME_INST_FIN = 60),
                            NEWTON=_F(
                MATRICE = 'ELASTIQUE',
                REAC_INCR = 5,
                REAC_ITER = 3),
                       CONVERGENCE=_F(
                ITER_GLOB_MAXI = 20,
                RESI_GLOB_RELA = 1.E-6)
              )

SOLNK=CALC_CHAMP(reuse=SOLNK,CONTRAINTE=('SIGM_ELNO'),VARI_INTERNE=('VARI_ELNO'),RESULTAT=SOLNK)


TEST_RESU(RESU=(_F(NUME_ORDRE=20,
                   RESULTAT=SOLNK,
                   NOM_CHAM='SIGM_ELNO',
                   NOEUD='N1',
                   NOM_CMP='SIZZ',
                   VALE_CALC=253.025227833,
                   VALE_REFE=253.02000000000001,
                   REFERENCE='NON_DEFINI',
                   PRECISION=5.0000000000000001E-3,
                   MAILLE='MA1',),
                _F(NUME_ORDRE=20,
                   RESULTAT=SOLNK,
                   NOM_CHAM='VARI_ELNO',
                   NOEUD='N1',
                   NOM_CMP='V7',
                   VALE_CALC= 1.64610703E-03,
                   VALE_REFE=1.6461E-3,
                   REFERENCE='NON_DEFINI',
                   PRECISION=5.0000000000000001E-3,
                   MAILLE='MA1',),
                _F(NUME_ORDRE=20,
                   RESULTAT=SOLNK,
                   NOM_CHAM='VARI_ELNO',
                   NOEUD='N1',
                   NOM_CMP='V8',
                   VALE_CALC= 1.64605331E-03,
                   VALE_REFE=1.6459999999999999E-3,
                   REFERENCE='NON_DEFINI',
                   PRECISION=5.0000000000000001E-3,
                   MAILLE='MA1',),
                _F(NUME_ORDRE=20,
                   RESULTAT=SOLNK,
                   NOM_CHAM='VARI_ELNO',
                   NOEUD='N1',
                   NOM_CMP='V9',
                   VALE_CALC= 2.32021286E-04,
                   VALE_REFE=2.32E-4,
                   REFERENCE='NON_DEFINI',
                   PRECISION=5.0000000000000001E-3,
                   MAILLE='MA1',),
                _F(NUME_ORDRE=30,
                   RESULTAT=SOLNK,
                   NOM_CHAM='SIGM_ELNO',
                   NOEUD='N1',
                   NOM_CMP='SIZZ',
                   VALE_CALC=164.367741334,
                   VALE_REFE=164.36000000000001,
                   REFERENCE='NON_DEFINI',
                   PRECISION=5.0000000000000001E-3,
                   MAILLE='MA1',),
                _F(NUME_ORDRE=30,
                   RESULTAT=SOLNK,
                   NOM_CHAM='VARI_ELNO',
                   NOEUD='N1',
                   NOM_CMP='V7',
                   VALE_CALC= 2.23453773E-03,
                   VALE_REFE=2.2344999999999999E-3,
                   REFERENCE='NON_DEFINI',
                   PRECISION=5.0000000000000001E-3,
                   MAILLE='MA1',),
                _F(NUME_ORDRE=30,
                   RESULTAT=SOLNK,
                   NOM_CHAM='VARI_ELNO',
                   NOEUD='N1',
                   NOM_CMP='V8',
                   VALE_CALC= 2.23391610E-03,
                   VALE_REFE=2.2339E-3,
                   REFERENCE='NON_DEFINI',
                   PRECISION=5.0000000000000001E-3,
                   MAILLE='MA1',),
                _F(NUME_ORDRE=30,
                   RESULTAT=SOLNK,
                   NOM_CHAM='VARI_ELNO',
                   NOEUD='N1',
                   NOM_CMP='V9',
                   VALE_CALC= 2.73998723E-03,
                   VALE_REFE=2.7399E-3,
                   REFERENCE='NON_DEFINI',
                   PRECISION=5.0000000000000001E-3,
                   MAILLE='MA1',),
                _F(NUME_ORDRE=40,
                   RESULTAT=SOLNK,
                   NOM_CHAM='SIGM_ELNO',
                   NOEUD='N1',
                   NOM_CMP='SIZZ',
                   VALE_CALC=102.166457748,
                   VALE_REFE=102.16,
                   REFERENCE='NON_DEFINI',
                   PRECISION=5.0000000000000001E-3,
                   MAILLE='MA1',),
                _F(NUME_ORDRE=40,
                   RESULTAT=SOLNK,
                   NOM_CHAM='VARI_ELNO',
                   NOEUD='N1',
                   NOM_CMP='V7',
                   VALE_CALC= 2.63291900E-03,
                   VALE_REFE=2.6329000000000001E-3,
                   REFERENCE='NON_DEFINI',
                   PRECISION=5.0000000000000001E-3,
                   MAILLE='MA1',),
                _F(NUME_ORDRE=40,
                   RESULTAT=SOLNK,
                   NOM_CHAM='VARI_ELNO',
                   NOEUD='N1',
                   NOM_CMP='V8',
                   VALE_CALC= 2.62828312E-03,
                   VALE_REFE=2.6282800000000002E-3,
                   REFERENCE='NON_DEFINI',
                   PRECISION=5.0000000000000001E-3,
                   MAILLE='MA1',),
                _F(NUME_ORDRE=40,
                   RESULTAT=SOLNK,
                   NOM_CHAM='VARI_ELNO',
                   NOEUD='N1',
                   NOM_CMP='V9',
                   VALE_CALC=0.027561721,
                   VALE_REFE=0.027560999999999999,
                   REFERENCE='NON_DEFINI',
                   PRECISION=5.0000000000000001E-3,
                   MAILLE='MA1',),
                _F(NUME_ORDRE=50,
                   RESULTAT=SOLNK,
                   NOM_CHAM='SIGM_ELNO',
                   NOEUD='N1',
                   NOM_CMP='SIZZ',
                   VALE_CALC=79.746659900,
                   VALE_REFE=79.920000000000002,
                   REFERENCE='NON_DEFINI',
                   PRECISION=5.0000000000000001E-3,
                   MAILLE='MA1',),
                _F(NUME_ORDRE=50,
                   RESULTAT=SOLNK,
                   NOM_CHAM='VARI_ELNO',
                   NOEUD='N1',
                   NOM_CMP='V7',
                   VALE_CALC= 2.76408610E-03,
                   VALE_REFE=2.762699E-3,
                   REFERENCE='NON_DEFINI',
                   PRECISION=5.0000000000000001E-3,
                   MAILLE='MA1',),
                _F(NUME_ORDRE=50,
                   RESULTAT=SOLNK,
                   NOM_CHAM='VARI_ELNO',
                   NOEUD='N1',
                   NOM_CMP='V8',
                   VALE_CALC= 2.75362101E-03,
                   VALE_REFE=2.7522900000000001E-3,
                   REFERENCE='NON_DEFINI',
                   PRECISION=5.0000000000000001E-3,
                   MAILLE='MA1',),
                _F(NUME_ORDRE=50,
                   RESULTAT=SOLNK,
                   NOM_CHAM='VARI_ELNO',
                   NOEUD='N1',
                   NOM_CMP='V9',
                   VALE_CALC=0.066057122,
                   VALE_REFE=0.066266500000000006,
                   REFERENCE='NON_DEFINI',
                   PRECISION=1.E-2,
                   MAILLE='MA1',),
                _F(NUME_ORDRE=60,
                   RESULTAT=SOLNK,
                   NOM_CHAM='SIGM_ELNO',
                   NOEUD='N1',
                   NOM_CMP='SIZZ',
                   VALE_CALC=70.726601496,
                   VALE_REFE=70.900000000000006,
                   REFERENCE='NON_DEFINI',
                   PRECISION=1.E-2,
                   MAILLE='MA1',),
                _F(NUME_ORDRE=60,
                   RESULTAT=SOLNK,
                   NOM_CHAM='VARI_ELNO',
                   NOEUD='N1',
                   NOM_CMP='V7',
                   VALE_CALC= 2.81534917E-03,
                   VALE_REFE=2.8137000000000001E-3,
                   REFERENCE='NON_DEFINI',
                   PRECISION=5.0000000000000001E-3,
                   MAILLE='MA1',),
                _F(NUME_ORDRE=60,
                   RESULTAT=SOLNK,
                   NOM_CHAM='VARI_ELNO',
                   NOEUD='N1',
                   NOM_CMP='V8',
                   VALE_CALC= 2.80091521E-03,
                   VALE_REFE=2.7992999999999998E-3,
                   REFERENCE='NON_DEFINI',
                   PRECISION=5.0000000000000001E-3,
                   MAILLE='MA1',),
                _F(NUME_ORDRE=60,
                   RESULTAT=SOLNK,
                   NOM_CHAM='VARI_ELNO',
                   NOEUD='N1',
                   NOM_CMP='V9',
                   VALE_CALC=0.089719906,
                   VALE_REFE=0.090278800000000006,
                   REFERENCE='NON_DEFINI',
                   PRECISION=1.E-2,
                   MAILLE='MA1',),
                ),
          )

########################################################
# CALCUL IMPLICITE LORSQUE KD_T NE DEPEND QUE DE T
########################################################


SOLNL=STAT_NON_LINE(
                             TITRE='TEST RELAXATION SIMPLE',
                            MODELE=EPD3,
                        CHAM_MATER=MAT,
                             EXCIT=_F(
                CHARGE = COND_LIM,
                FONC_MULT = COEF_TR),
                         COMP_INCR=_F(
                RELATION = 'VENDOCHAB',
                DEFORMATION = 'PETIT',
                RESI_INTE_RELA = 1.E-6,
                ITER_INTE_MAXI = 60,
                ALGO_INTE = 'NEWTON',
                TOUT = 'OUI'),
                         INCREMENT=_F(
                LIST_INST = LINST,
                NUME_INST_FIN = 60),
                            NEWTON=_F(
                MATRICE = 'TANGENTE',
                REAC_ITER = 3),
                       CONVERGENCE=_F(
                ITER_GLOB_MAXI = 20,
                RESI_GLOB_RELA = 1.E-6)
              )

SOLNL=CALC_CHAMP(reuse=SOLNL,CONTRAINTE=('SIGM_ELNO'),VARI_INTERNE=('VARI_ELNO'),RESULTAT=SOLNL)


TEST_RESU(RESU=(_F(NUME_ORDRE=20,
                   RESULTAT=SOLNL,
                   NOM_CHAM='SIGM_ELNO',
                   NOEUD='N1',
                   NOM_CMP='SIZZ',
                   VALE_CALC=258.158782084,
                   VALE_REFE=253.02000000000001,
                   REFERENCE='NON_DEFINI',
                   PRECISION=0.040000000000000001,
                   MAILLE='MA1',),
                _F(NUME_ORDRE=20,
                   RESULTAT=SOLNL,
                   NOM_CHAM='VARI_ELNO',
                   NOEUD='N1',
                   NOM_CMP='V7',
                   VALE_CALC= 1.61186371E-03,
                   VALE_REFE=1.6461E-3,
                   REFERENCE='NON_DEFINI',
                   PRECISION=0.040000000000000001,
                   MAILLE='MA1',),
                _F(NUME_ORDRE=20,
                   RESULTAT=SOLNL,
                   NOM_CHAM='VARI_ELNO',
                   NOEUD='N1',
                   NOM_CMP='V8',
                   VALE_CALC= 1.61178340E-03,
                   VALE_REFE=1.6459999999999999E-3,
                   REFERENCE='NON_DEFINI',
                   PRECISION=0.040000000000000001,
                   MAILLE='MA1',),
                _F(NUME_ORDRE=20,
                   RESULTAT=SOLNL,
                   NOM_CHAM='VARI_ELNO',
                   NOEUD='N1',
                   NOM_CMP='V9',
                   VALE_CALC= 2.38791270E-04,
                   VALE_REFE=2.32E-4,
                   REFERENCE='NON_DEFINI',
                   PRECISION=0.040000000000000001,
                   MAILLE='MA1',),
                _F(NUME_ORDRE=30,
                   RESULTAT=SOLNL,
                   NOM_CHAM='SIGM_ELNO',
                   NOEUD='N1',
                   NOM_CMP='SIZZ',
                   VALE_CALC=167.958404467,
                   VALE_REFE=164.36000000000001,
                   REFERENCE='NON_DEFINI',
                   PRECISION=0.040000000000000001,
                   MAILLE='MA1',),
                _F(NUME_ORDRE=30,
                   RESULTAT=SOLNL,
                   NOM_CHAM='VARI_ELNO',
                   NOEUD='N1',
                   NOM_CMP='V7',
                   VALE_CALC= 2.21044297E-03,
                   VALE_REFE=2.2344999999999999E-3,
                   REFERENCE='NON_DEFINI',
                   PRECISION=0.040000000000000001,
                   MAILLE='MA1',),
                _F(NUME_ORDRE=30,
                   RESULTAT=SOLNL,
                   NOM_CHAM='VARI_ELNO',
                   NOEUD='N1',
                   NOM_CMP='V8',
                   VALE_CALC= 2.20966419E-03,
                   VALE_REFE=2.2339E-3,
                   REFERENCE='NON_DEFINI',
                   PRECISION=0.040000000000000001,
                   MAILLE='MA1',),
                _F(NUME_ORDRE=30,
                   RESULTAT=SOLNL,
                   NOM_CHAM='VARI_ELNO',
                   NOEUD='N1',
                   NOM_CMP='V9',
                   VALE_CALC= 2.82099401E-03,
                   VALE_REFE=2.7399E-3,
                   REFERENCE='NON_DEFINI',
                   PRECISION=0.040000000000000001,
                   MAILLE='MA1',),
                _F(NUME_ORDRE=40,
                   RESULTAT=SOLNL,
                   NOM_CHAM='SIGM_ELNO',
                   NOEUD='N1',
                   NOM_CMP='SIZZ',
                   VALE_CALC=104.393066458,
                   VALE_REFE=102.16,
                   REFERENCE='NON_DEFINI',
                   PRECISION=0.040000000000000001,
                   MAILLE='MA1',),
                _F(NUME_ORDRE=40,
                   RESULTAT=SOLNL,
                   NOM_CHAM='VARI_ELNO',
                   NOEUD='N1',
                   NOM_CMP='V7',
                   VALE_CALC= 2.61704489E-03,
                   VALE_REFE=2.6329000000000001E-3,
                   REFERENCE='NON_DEFINI',
                   PRECISION=0.040000000000000001,
                   MAILLE='MA1',),
                _F(NUME_ORDRE=40,
                   RESULTAT=SOLNL,
                   NOM_CHAM='VARI_ELNO',
                   NOEUD='N1',
                   NOM_CMP='V8',
                   VALE_CALC= 2.61134859E-03,
                   VALE_REFE=2.6282800000000002E-3,
                   REFERENCE='NON_DEFINI',
                   PRECISION=0.040000000000000001,
                   MAILLE='MA1',),
                _F(NUME_ORDRE=40,
                   RESULTAT=SOLNL,
                   NOM_CHAM='VARI_ELNO',
                   NOEUD='N1',
                   NOM_CMP='V9',
                   VALE_CALC=0.028388933,
                   VALE_REFE=0.027560999999999999,
                   REFERENCE='NON_DEFINI',
                   PRECISION=0.040000000000000001,
                   MAILLE='MA1',),
                _F(NUME_ORDRE=50,
                   RESULTAT=SOLNL,
                   NOM_CHAM='SIGM_ELNO',
                   NOEUD='N1',
                   NOM_CMP='SIZZ',
                   VALE_CALC=80.145622351,
                   VALE_REFE=79.920000000000002,
                   REFERENCE='NON_DEFINI',
                   PRECISION=0.040000000000000001,
                   MAILLE='MA1',),
                _F(NUME_ORDRE=50,
                   RESULTAT=SOLNL,
                   NOM_CHAM='VARI_ELNO',
                   NOEUD='N1',
                   NOM_CMP='V7',
                   VALE_CALC= 2.75973302E-03,
                   VALE_REFE=2.762699E-3,
                   REFERENCE='NON_DEFINI',
                   PRECISION=0.040000000000000001,
                   MAILLE='MA1',),
                _F(NUME_ORDRE=50,
                   RESULTAT=SOLNL,
                   NOM_CHAM='VARI_ELNO',
                   NOEUD='N1',
                   NOM_CMP='V8',
                   VALE_CALC= 2.74717730E-03,
                   VALE_REFE=2.7522900000000001E-3,
                   REFERENCE='NON_DEFINI',
                   PRECISION=0.040000000000000001,
                   MAILLE='MA1',),
                _F(NUME_ORDRE=50,
                   RESULTAT=SOLNL,
                   NOM_CHAM='VARI_ELNO',
                   NOEUD='N1',
                   NOM_CMP='V9',
                   VALE_CALC=0.068507927,
                   VALE_REFE=0.066266500000000006,
                   REFERENCE='NON_DEFINI',
                   PRECISION=0.040000000000000001,
                   MAILLE='MA1',),
                _F(NUME_ORDRE=60,
                   RESULTAT=SOLNL,
                   NOM_CHAM='SIGM_ELNO',
                   NOEUD='N1',
                   NOM_CMP='SIZZ',
                   VALE_CALC=70.749843105,
                   VALE_REFE=70.900000000000006,
                   REFERENCE='NON_DEFINI',
                   PRECISION=0.040000000000000001,
                   MAILLE='MA1',),
                _F(NUME_ORDRE=60,
                   RESULTAT=SOLNL,
                   NOM_CHAM='VARI_ELNO',
                   NOEUD='N1',
                   NOM_CMP='V7',
                   VALE_CALC= 2.81344985E-03,
                   VALE_REFE=2.8137000000000001E-3,
                   REFERENCE='NON_DEFINI',
                   PRECISION=0.040000000000000001,
                   MAILLE='MA1',),
                _F(NUME_ORDRE=60,
                   RESULTAT=SOLNL,
                   NOM_CHAM='VARI_ELNO',
                   NOEUD='N1',
                   NOM_CMP='V8',
                   VALE_CALC= 2.79652521E-03,
                   VALE_REFE=2.7992999999999998E-3,
                   REFERENCE='NON_DEFINI',
                   PRECISION=0.040000000000000001,
                   MAILLE='MA1',),
                _F(NUME_ORDRE=60,
                   RESULTAT=SOLNL,
                   NOM_CHAM='VARI_ELNO',
                   NOEUD='N1',
                   NOM_CMP='V9',
                   VALE_CALC=0.092747434,
                   VALE_REFE=0.090278800000000006,
                   REFERENCE='NON_DEFINI',
                   PRECISION=0.040000000000000001,
                   MAILLE='MA1',),
                ),
          )

FIN()
#
