#  TITRE Loi de comportement KITT_RGI : Essais de fluage propre avec prise en compte de l'endommagement
# ======================================================================
# COPYRIGHT (C) 1991 - 2015  EDF R&D                  WWW.CODE-ASTER.ORG
# THIS PROGRAM IS FREE SOFTWARE; YOU CAN REDISTRIBUTE IT AND/OR MODIFY
# IT UNDER THE TERMS OF THE GNU GENERAL PUBLIC LICENSE AS PUBLISHED BY
# THE FREE SOFTWARE FOUNDATION; EITHER VERSION 2 OF THE LICENSE, OR
# (AT YOUR OPTION) ANY LATER VERSION.
#
# THIS PROGRAM IS DISTRIBUTED IN THE HOPE THAT IT WILL BE USEFUL, BUT
# WITHOUT ANY WARRANTY; WITHOUT EVEN THE IMPLIED WARRANTY OF
# MERCHANTABILITY OR FITNESS FOR A PARTICULAR PURPOSE. SEE THE GNU
# GENERAL PUBLIC LICENSE FOR MORE DETAILS.
#
# YOU SHOULD HAVE RECEIVED A COPY OF THE GNU GENERAL PUBLIC LICENSE
# ALONG WITH THIS PROGRAM; IF NOT, WRITE TO EDF R&D CODE_ASTER,
#    1 AVENUE DU GENERAL DE GAULLE, 92141 CLAMART CEDEX, FRANCE.
# ======================================================================
#  TEST LOI DE TEST LOI KITT_RGI (module FLUA_PORO_BETON couplé à ENDO_PORO_BETON)
# -----------------------------------------------------

DEBUT(CODE=_F(NIV_PUB_WEB='INTERNET'),DEBUG=_F(SDVERI='OUI'))

M=LIRE_MAILLAGE(UNITE=20,
                FORMAT='MED',);

M=DEFI_GROUP(reuse =M,
             MAILLAGE=M,
             CREA_GROUP_NO=_F(GROUP_MA=('S_SUP','S_GCH','S_DRT','S_AVT','S_ARR','S_INF',),),);

MO=AFFE_MODELE(MAILLAGE=M,
               AFFE=_F(TOUT='OUI',
                       PHENOMENE='MECANIQUE',
                       MODELISATION='3D',),);

E=DEFI_CONSTANTE(VALE=41838.0,);

NU=DEFI_CONSTANTE(VALE=0.17,);

ALPHA=DEFI_CONSTANTE(VALE=1.E-5,);

RHOF=DEFI_CONSTANTE(VALE = 2400.,)
BETON=DEFI_MATERIAU(ELAS_FO=_F(E=E,
                               NU=NU,
                               TEMP_DEF_ALPHA=20.0,
                               ALPHA=ALPHA,
                               K_DESSIC=0.,
                               B_ENDOGE=0.,
                               RHO = RHOF,),
                    PORO_BETON =_F(HYDS    = 0.2,
                               F_C      = 42.,
                               F_T      = 4.,
                               EPS_COMP     = 0.002,
                               EPS_TRAC     = 0.0001,
                               EKVP    = 0.0032,
                               CBIO    = 0.3,
                               MODU_EAU    = 0.,
                               SFLD    = 12.,
                               MODU_GEL      = 0.,
                               VOL_GEL     = 0.0,
                               PORO    = 0.12,
                               TKVP    = 0.1,
                               NRJA    = 36500.,
                               MSHR    = 0.,
                               KD      = 0.,
                               MU      = 0.,
                               DT80    = 0.3,
                               STMP    = 1.0,
                               KTMP    = 4.5,
                               TREF    = 0.00139,
                               GFTL = 1.E-3,
                               GFCL = 1.E-1,
                               WREF = 5.E-6,
                               TPHI = 1.,
                               ANG_CRIT = 1.,
                               SREF = 5.,
                               VREF = 4.E-4,
                               VMAX = 1.E-3,
                               KWB  = 7.,
                               COVS = 0.,
                               Y1SY    = 3.,
                               TAU1    = 1.,
                               TAU2    = 7.,
                               EKFL    = 1.2e-3,
                               DFMX    = 1.0,));

HYDRI=CREA_CHAMP(TYPE_CHAM='NOEU_HYDR_R',
                OPERATION='AFFE',
                MAILLAGE=M,
                AFFE=_F(TOUT='OUI',
                        NOM_CMP='HYDR',
                        VALE=0.999999),);

HYDRF=CREA_CHAMP(TYPE_CHAM='NOEU_HYDR_R',
                OPERATION='AFFE',
                MAILLAGE=M,
                AFFE=_F(TOUT='OUI',
                        NOM_CMP='HYDR',
                        VALE=0.999999),);

HYDR=CREA_RESU(OPERATION='AFFE',
                TYPE_RESU='EVOL_VARC',
                NOM_CHAM='HYDR_NOEU',
                AFFE=(
               _F(CHAM_GD=HYDRI,
                   INST=0.0,),
               _F(CHAM_GD=HYDRF,
                   INST=210.0,),),);

TEMPI=CREA_CHAMP(TYPE_CHAM='NOEU_TEMP_R',
                OPERATION='AFFE',
                MAILLAGE=M,
                AFFE=_F(TOUT='OUI',
                        NOM_CMP='TEMP',
                        VALE=20.0,),);

TEMPF=CREA_CHAMP(TYPE_CHAM='NOEU_TEMP_R',
                OPERATION='AFFE',
                MAILLAGE=M,
                AFFE=_F(TOUT='OUI',
                        NOM_CMP='TEMP',
                        VALE=20.0,),);

TEMP=CREA_RESU(OPERATION='AFFE',
                TYPE_RESU='EVOL_THER',
                NOM_CHAM='TEMP',
                AFFE=(
                _F(CHAM_GD=TEMPI,
                   INST=0.0,),
                _F(CHAM_GD=TEMPF,
                   INST=210.0,),),);

CM=AFFE_MATERIAU(MAILLAGE=M,
                 AFFE=_F(TOUT='OUI',
                         MATER=BETON,),
                 AFFE_VARC=(_F(TOUT='OUI',
                              EVOL=HYDR,
                              NOM_VARC='HYDR',
                              NOM_CHAM='HYDR_NOEU',
                              #VALE_REF = 0.999999,
                  ),
                             _F(TOUT='OUI',
                              EVOL=TEMP,
                              NOM_VARC='TEMP',
                              NOM_CHAM='TEMP',
                              VALE_REF = 20.),),
                 );


FORCE20=DEFI_FONCTION(NOM_PARA='INST',VALE=(0.0,0.0,
                          0.1,-8.4,
                          210.,-8.4,
                          ),PROL_DROITE='LINEAIRE',PROL_GAUCHE='LINEAIRE',);

FORCE35=DEFI_FONCTION(NOM_PARA='INST',VALE=(0.0,0.0,
                          0.1,-14.7,
                          210.,-14.7,
                          ),PROL_DROITE='LINEAIRE',PROL_GAUCHE='LINEAIRE',);

FORCE50=DEFI_FONCTION(NOM_PARA='INST',VALE=(0.0,0.0,
                          0.1,-21.,
                          210.,-21.,
                          ),PROL_DROITE='LINEAIRE',PROL_GAUCHE='LINEAIRE',);

FORCE65=DEFI_FONCTION(NOM_PARA='INST',VALE=(0.0,0.0,
                          0.1,-27.3,
                          210.,-27.3,
                          ),PROL_DROITE='LINEAIRE',PROL_GAUCHE='LINEAIRE',);

CH10=AFFE_CHAR_MECA(MODELE=MO,
                    DDL_IMPO=_F(GROUP_NO='S_INF',
                                DZ=0.,),);

CH11=AFFE_CHAR_MECA(MODELE=MO,
                    DDL_IMPO=_F(GROUP_NO='S_GCH',
                                DX=0.0,),);

CH12=AFFE_CHAR_MECA(MODELE=MO,
                    DDL_IMPO=_F(GROUP_NO='S_AVT',
                                DY=0.0,),);

CH20=AFFE_CHAR_MECA_F(MODELE=MO,
                      LIAISON_UNIF=_F(GROUP_NO='S_DRT',
                                      DDL='DX',),);

CH21=AFFE_CHAR_MECA(MODELE=MO,
                    LIAISON_UNIF=_F(GROUP_NO='S_ARR',
                                    DDL='DY',),);

CHF20=AFFE_CHAR_MECA_F(MODELE=MO,
                      FORCE_FACE=_F(MAILLE='M16',
                                    FZ=FORCE20,),);
CHF35=AFFE_CHAR_MECA_F(MODELE=MO,
                      FORCE_FACE=_F(MAILLE='M16',
                                    FZ=FORCE35,),);
CHF50=AFFE_CHAR_MECA_F(MODELE=MO,
                      FORCE_FACE=_F(MAILLE='M16',
                                    FZ=FORCE50,),);
CHF65=AFFE_CHAR_MECA_F(MODELE=MO,
                      FORCE_FACE=_F(MAILLE='M16',
                                    FZ=FORCE65,),);

CH23=AFFE_CHAR_MECA_F(MODELE=MO,
                      LIAISON_UNIF=_F(GROUP_NO='S_SUP',
                                      DDL='DZ',),);

L_INST=DEFI_LIST_REEL(DEBUT=0.0,
                      INTERVALLE=(_F(JUSQU_A=0.1,
                                     NOMBRE=4,),
                                  _F(JUSQU_A=1.,
                                     NOMBRE=9,),
                                  _F(JUSQU_A=50.,
                                     NOMBRE=49,),
                                  _F(JUSQU_A=100.,
                                     NOMBRE=10,),
                                  _F(JUSQU_A=210.,
                                     NOMBRE=22,),
                     ),);


#DELTAT=432000=5J

U20=STAT_NON_LINE(MODELE=MO,
                CHAM_MATER=CM,
                EXCIT=(_F(CHARGE=CH10,),
                       _F(CHARGE=CH11,),
                       _F(CHARGE=CH12,),
                       _F(CHARGE=CH20,),
                       _F(CHARGE=CH21,),
                       _F(CHARGE=CHF20,),
                       _F(CHARGE=CH23,),),
                COMPORTEMENT=_F(RELATION = 'KIT_DDI', 
                                RELATION_KIT =('ENDO_PORO_BETON',
                                'FLUA_PORO_BETON'),),
                INCREMENT=_F(LIST_INST=L_INST,),
                NEWTON=_F(PREDICTION='ELASTIQUE',
                          MATRICE='TANGENTE',
                           ),
                CONVERGENCE=_F(ITER_GLOB_MAXI=100,))

U35=STAT_NON_LINE(MODELE=MO,
                CHAM_MATER=CM,
                EXCIT=(_F(CHARGE=CH10,),
                       _F(CHARGE=CH11,),
                       _F(CHARGE=CH12,),
                       _F(CHARGE=CH20,),
                       _F(CHARGE=CH21,),
                       _F(CHARGE=CHF35,),
                       _F(CHARGE=CH23,),),
                COMPORTEMENT=_F(RELATION = 'KIT_DDI', 
                                RELATION_KIT =('ENDO_PORO_BETON',
                                'FLUA_PORO_BETON'),),
                INCREMENT=_F(LIST_INST=L_INST,),
                NEWTON=_F(PREDICTION='ELASTIQUE',
                          MATRICE='TANGENTE',
                           ),
                CONVERGENCE=_F(ITER_GLOB_MAXI=100,))

U50=STAT_NON_LINE(MODELE=MO,
                CHAM_MATER=CM,
                EXCIT=(_F(CHARGE=CH10,),
                       _F(CHARGE=CH11,),
                       _F(CHARGE=CH12,),
                       _F(CHARGE=CH20,),
                       _F(CHARGE=CH21,),
                       _F(CHARGE=CHF50,),
                       _F(CHARGE=CH23,),),
                COMPORTEMENT=_F(RELATION = 'KIT_DDI', 
                                RELATION_KIT =('ENDO_PORO_BETON',
                                'FLUA_PORO_BETON'),),
                INCREMENT=_F(LIST_INST=L_INST,),
                NEWTON=_F(PREDICTION='ELASTIQUE',
                          MATRICE='TANGENTE',
                           ),
                CONVERGENCE=_F(ITER_GLOB_MAXI=100,))

U65=STAT_NON_LINE(MODELE=MO,
                CHAM_MATER=CM,
                EXCIT=(_F(CHARGE=CH10,),
                       _F(CHARGE=CH11,),
                       _F(CHARGE=CH12,),
                       _F(CHARGE=CH20,),
                       _F(CHARGE=CH21,),
                       _F(CHARGE=CHF65,),
                       _F(CHARGE=CH23,),),
                COMPORTEMENT=_F(RELATION = 'KIT_DDI', 
                                RELATION_KIT =('ENDO_PORO_BETON',
                                'FLUA_PORO_BETON'),),
                INCREMENT=_F(LIST_INST=L_INST,),
                NEWTON=_F(PREDICTION='ELASTIQUE',
                          MATRICE='TANGENTE',
                           ),
                CONVERGENCE=_F(ITER_GLOB_MAXI=100,))

U20=CALC_CHAMP(reuse =U20,CONTRAINTE=('SIGM_ELNO'),VARI_INTERNE=('VARI_ELNO'),DEFORMATION=('EPSI_ELNO'),RESULTAT=U20);

U35=CALC_CHAMP(reuse =U35,CONTRAINTE=('SIGM_ELNO'),VARI_INTERNE=('VARI_ELNO'),DEFORMATION=('EPSI_ELNO'),RESULTAT=U35);

U50=CALC_CHAMP(reuse =U50,CONTRAINTE=('SIGM_ELNO'),VARI_INTERNE=('VARI_ELNO'),DEFORMATION=('EPSI_ELNO'),RESULTAT=U50);

U65=CALC_CHAMP(reuse =U65,CONTRAINTE=('SIGM_ELNO'),VARI_INTERNE=('VARI_ELNO'),DEFORMATION=('EPSI_ELNO'),RESULTAT=U65);


TEST_RESU(RESU=(_F(RESULTAT=U20,
                   NUME_ORDRE=24,
                   NOM_CHAM='EPSI_ELNO',
                   NOM_CMP='EPZZ',
                   MAILLE='M19',
                   NOEUD='N3',
                   VALE_CALC=-0.000485309814461,),
                _F(RESULTAT=U20,
                   NUME_ORDRE=52,
                   NOM_CHAM='EPSI_ELNO',
                   NOM_CMP='EPZZ',
                   MAILLE='M19',
                   NOEUD='N3',
                   VALE_CALC=-0.000629584254089,),
                _F(RESULTAT=U20,
                   NUME_ORDRE=71,
                   NOM_CHAM='EPSI_ELNO',
                   NOM_CMP='EPZZ',
                   MAILLE='M19',
                   NOEUD='N3',
                   VALE_CALC= -0.000743123160981,),
                _F(RESULTAT=U20,
                   NUME_ORDRE=82,
                   NOM_CHAM='EPSI_ELNO',
                   NOM_CMP='EPZZ',
                   MAILLE='M19',
                   NOEUD='N3',
                   VALE_CALC=-0.000804151226723,),
                _F(RESULTAT=U20,
                   NUME_ORDRE=94,
                   NOM_CHAM='EPSI_ELNO',
                   NOM_CMP='EPZZ',
                   MAILLE='M19',
                   NOEUD='N3',
                   VALE_CALC=-0.00084909856787,),
           ),);

TEST_RESU(RESU=(_F(RESULTAT=U35,
                   NUME_ORDRE=24,
                   NOM_CHAM='EPSI_ELNO',
                   NOM_CMP='EPZZ',
                   MAILLE='M19',
                   NOEUD='N3',
                   VALE_CALC=-0.00088955762225 ,),
                _F(RESULTAT=U35,
                   NUME_ORDRE=52,
                   NOM_CHAM='EPSI_ELNO',
                   NOM_CMP='EPZZ',
                   MAILLE='M19',
                   NOEUD='N3',
                   VALE_CALC=-0.0011592710858,),
                _F(RESULTAT=U35,
                   NUME_ORDRE=71,
                   NOM_CHAM='EPSI_ELNO',
                   NOM_CMP='EPZZ',
                   MAILLE='M19',
                   NOEUD='N3',
                   VALE_CALC=-0.0013688061916,),
                _F(RESULTAT=U35,
                   NUME_ORDRE=82,
                   NOM_CHAM='EPSI_ELNO',
                   NOM_CMP='EPZZ',
                   MAILLE='M19',
                   NOEUD='N3',
                   VALE_CALC=-0.0014806560545,),
                _F(RESULTAT=U35,
                   NUME_ORDRE=94,
                   NOM_CHAM='EPSI_ELNO',
                   NOM_CMP='EPZZ',
                   MAILLE='M19',
                   NOEUD='N3',
                   VALE_CALC=-0.00156277064784,),
           ),);

TEST_RESU(RESU=(_F(RESULTAT=U50,
                   NUME_ORDRE=24,
                   NOM_CHAM='EPSI_ELNO',
                   NOM_CMP='EPZZ',
                   MAILLE='M19',
                   NOEUD='N3',
                   VALE_CALC=-0.00136578768315,),
                _F(RESULTAT=U50,
                   NUME_ORDRE=52,
                   NOM_CHAM='EPSI_ELNO',
                   NOM_CMP='EPZZ',
                   MAILLE='M19',
                   NOEUD='N3',
                   VALE_CALC=-0.00179719651334,),
                _F(RESULTAT=U50,
                   NUME_ORDRE=71,
                   NOM_CHAM='EPSI_ELNO',
                   NOM_CMP='EPZZ',
                   MAILLE='M19',
                   NOEUD='N3',
                   VALE_CALC=-0.00212319272857,),
                _F(RESULTAT=U50,
                   NUME_ORDRE=82,
                   NOM_CHAM='EPSI_ELNO',
                   NOM_CMP='EPZZ',
                   MAILLE='M19',
                   NOEUD='N3',
                   VALE_CALC=-0.00229470237794,),
                _F(RESULTAT=U50,
                   NUME_ORDRE=94,
                   NOM_CHAM='EPSI_ELNO',
                   NOM_CMP='EPZZ',
                   MAILLE='M19',
                   NOEUD='N3',
                   VALE_CALC=-0.00241979505327,),
           ),);

TEST_RESU(RESU=(_F(RESULTAT=U65,
                   NUME_ORDRE=24,
                   NOM_CHAM='EPSI_ELNO',
                   NOM_CMP='EPZZ',
                   MAILLE='M19',
                   NOEUD='N3',
                   VALE_CALC=-0.00200552561251,),
                _F(RESULTAT=U65,
                   NUME_ORDRE=52,
                   NOM_CHAM='EPSI_ELNO',
                   NOM_CMP='EPZZ',
                   MAILLE='M19',
                   NOEUD='N3',
                   VALE_CALC=-0.00270367625722,),
                _F(RESULTAT=U65,
                   NUME_ORDRE=71,
                   NOM_CHAM='EPSI_ELNO',
                   NOM_CMP='EPZZ',
                   MAILLE='M19',
                   NOEUD='N3',
                   VALE_CALC=-0.00319568277632,),
                _F(RESULTAT=U65,
                   NUME_ORDRE=82,
                   NOM_CHAM='EPSI_ELNO',
                   NOM_CMP='EPZZ',
                   MAILLE='M19',
                   NOEUD='N3',
                   VALE_CALC=-0.0034457032974,),
                _F(RESULTAT=U65,
                   NUME_ORDRE=94,
                   NOM_CHAM='EPSI_ELNO',
                   NOM_CMP='EPZZ',
                   MAILLE='M19',
                   NOEUD='N3',
                   VALE_CALC=-0.00362538028842,),
           ),);

FIN();

#
