# MODIF  DATE 20/07/2009   AUTEUR GENIAUT S.GENIAUT 
# TITRE TRACTION D UN BARREAU FRAGILE
#            CONFIGURATION MANAGEMENT OF EDF VERSION
# ======================================================================
# COPYRIGHT (C) 1991 - 2001  EDF R&D                  WWW.CODE-ASTER.ORG
# THIS PROGRAM IS FREE SOFTWARE; YOU CAN REDISTRIBUTE IT AND/OR MODIFY
# IT UNDER THE TERMS OF THE GNU GENERAL PUBLIC LICENSE AS PUBLISHED BY
# THE FREE SOFTWARE FOUNDATION; EITHER VERSION 2 OF THE LICENSE, OR
# (AT YOUR OPTION) ANY LATER VERSION.
#
# THIS PROGRAM IS DISTRIBUTED IN THE HOPE THAT IT WILL BE USEFUL, BUT
# WITHOUT ANY WARRANTY; WITHOUT EVEN THE IMPLIED WARRANTY OF
# MERCHANTABILITY OR FITNESS FOR A PARTICULAR PURPOSE. SEE THE GNU
# GENERAL PUBLIC LICENSE FOR MORE DETAILS.
#
# YOU SHOULD HAVE RECEIVED A COPY OF THE GNU GENERAL PUBLIC LICENSE
# ALONG WITH THIS PROGRAM; IF NOT, WRITE TO EDF R&D CODE_ASTER,
#    1 AVENUE DU GENERAL DE GAULLE, 92141 CLAMART CEDEX, FRANCE.
# ======================================================================
# MODELISATION 2D AXI   (10 MAILLES QUAD8)
#======================================================================

DEBUT(CODE=_F(NOM='SSNV147B', NIV_PUB_WEB='INTERNET'), DEBUG=_F(SDVERI='OUI'))

PRE_GIBI()

MA=LIRE_MAILLAGE()

MA=DEFI_GROUP( reuse=MA,
               MAILLAGE=MA,
               CREA_GROUP_NO=_F(
                TOUT_GROUP_MA = 'OUI')
              )

MO=AFFE_MODELE(
                MAILLAGE=MA,
                AFFE=_F(
               GROUP_MA = ('BLOC', 'FIXE', 'TRAC',),
               PHENOMENE = 'MECANIQUE',
               MODELISATION = 'AXIS')
             )

CALCAIRE=DEFI_MATERIAU(
                    ELAS=_F(
                E = 20000.,
                NU = 0.),
               ECRO_LINE=_F(
                SY = 6.,
                D_SIGM_EPSI = -10000.)
               )

CAL_FAIB=DEFI_MATERIAU(
                    ELAS=_F(
                E = 20000.,
                NU = 0.),
               ECRO_LINE=_F(
                SY = 5.,
                D_SIGM_EPSI = -10000.)
               )

CHMAT=AFFE_MATERIAU(
                MAILLAGE=MA,AFFE=(
                    _F(
                GROUP_MA = 'BLOC',
                MATER = CALCAIRE), _F(
                MAILLE = 'M1',
                MATER = CAL_FAIB))
              )

L_INST=DEFI_LIST_REEL(
               DEBUT=0.0,INTERVALLE=(

                _F(  JUSQU_A = 100.,       NOMBRE = 100),
                )
              )

LIAISON=AFFE_CHAR_MECA(
               MODELE=MO,

                FACE_IMPO=_F( GROUP_MA = 'FIXE',  DY = 0.)
              )

TRACTION=AFFE_CHAR_MECA(
                      MODELE=MO,
               FORCE_CONTOUR=_F( GROUP_MA = 'TRAC', FY = 1.)
              )

RAMPE=DEFI_FONCTION(
              NOM_PARA='INST',
                  VALE=(0., 0.,
                        1., 1.,)
             )

REPONSE=STAT_NON_LINE(
                     MODELE=MO,
                 CHAM_MATER=CHMAT,EXCIT=(

                _F( CHARGE = LIAISON),
                _F( CHARGE = TRACTION, FONC_MULT = RAMPE)),
                  COMP_INCR=_F(
                RELATION = 'ENDO_FRAGILE'),

                INCREMENT=_F(
                LIST_INST = L_INST,
                INST_FIN = 1.),
                     NEWTON=_F(
                MATRICE = 'TANGENTE',
                REAC_ITER = 1),
                CONVERGENCE=_F(
                RESI_GLOB_RELA = 1.E-6,
                ITER_GLOB_MAXI = 50)
             )

REPONSE=STAT_NON_LINE( reuse=REPONSE,
                  ETAT_INIT=_F(
                EVOL_NOLI = REPONSE),
                     MODELE=MO,
                 CHAM_MATER=CHMAT,EXCIT=(

                _F( CHARGE = LIAISON),
                _F( CHARGE = TRACTION, TYPE_CHARGE = 'FIXE_PILO')),
                  COMP_INCR=_F(
                RELATION = 'ENDO_FRAGILE'),

                INCREMENT=_F(
                LIST_INST = L_INST,),
               PILOTAGE=_F(
                TYPE = 'PRED_ELAS',
                COEF_MULT = 10.,
                ETA_PILO_R_MIN = 0.,
                ETA_PILO_MIN = 0.50),
                     NEWTON=_F(
                MATRICE = 'TANGENTE',
                REAC_ITER = 1),
                CONVERGENCE=_F(
                RESI_GLOB_RELA = 1.E-6,
                ITER_GLOB_MAXI = 10)
             )

TEST_RESU(RESU=(  _F(
               RESULTAT = REPONSE,
               NUME_ORDRE = 11,
               GROUP_NO = 'PB',
               NOM_CHAM = 'DEPL',
               NOM_CMP = 'DY',
               VALE = 9.25E-5), _F(
               RESULTAT = REPONSE,
               NUME_ORDRE = 11,
               MAILLE = 'M1',
               POINT = 1,
               NOM_CHAM = 'SIEF_ELGA',
               NOM_CMP = 'SIYY',
               VALE = 5.E-1), _F(
               RESULTAT = REPONSE,
               NUME_ORDRE = 11,
               MAILLE = 'M1',
               POINT = 1,
               NOM_CHAM = 'VARI_ELGA',
               NOM_CMP = 'V1',
               VALE = 0.964285714286))
             )

FIN()
#
#
#
#
