# ======================================================================
# COPYRIGHT (C) 1991 - 2016  EDF R&D                  WWW.CODE-ASTER.ORG
# THIS PROGRAM IS FREE SOFTWARE; YOU CAN REDISTRIBUTE IT AND/OR MODIFY
# IT UNDER THE TERMS OF THE GNU GENERAL PUBLIC LICENSE AS PUBLISHED BY
# THE FREE SOFTWARE FOUNDATION; EITHER VERSION 2 OF THE LICENSE, OR
# (AT YOUR OPTION) ANY LATER VERSION.
#
# THIS PROGRAM IS DISTRIBUTED IN THE HOPE THAT IT WILL BE USEFUL, BUT
# WITHOUT ANY WARRANTY; WITHOUT EVEN THE IMPLIED WARRANTY OF
# MERCHANTABILITY OR FITNESS FOR A PARTICULAR PURPOSE. SEE THE GNU
# GENERAL PUBLIC LICENSE FOR MORE DETAILS.
#
# YOU SHOULD HAVE RECEIVED A COPY OF THE GNU GENERAL PUBLIC LICENSE
# ALONG WITH THIS PROGRAM; IF NOT, WRITE TO EDF R&D CODE_ASTER,
#    1 AVENUE DU GENERAL DE GAULLE, 92141 CLAMART CEDEX, FRANCE.
# ======================================================================
# ESSAI DE CISAILLEMENT AVE LE LOI IWAN
# PRESSION DE CONSOLIDATION P0 = 50KPA


DEBUT(CODE=_F(NIV_PUB_WEB='INTERNET',VISU_EFICAS='NON'),DEBUG=_F(SDVERI='OUI'))

GammaRef=2.e-4
n=0.78
P0 = - 5.E4
N=0.4
PREF=-1.E6

# modules mecaniques [kPa]
K=516.2E6*(P0/PREF)**N
G=238.2E6*(P0/PREF)**N
YOUNG = 9.*K*G /(3.*K+G)
POISSON = (3.*K-2.*G) /(6.*K+2.*G)

MATE=DEFI_MATERIAU(ELAS=_F(E=YOUNG, 
                              NU=POISSON,),
                   Iwan=_F(YoungModulus = YOUNG ,
                               PoissonRatio = POISSON ,
                               GammaRef = GammaRef,
                               n = n,),)

TEMPS1=DEFI_LIST_REEL(DEBUT=0,
                      INTERVALLE=(_F(JUSQU_A=10,
                                     NOMBRE=1000,),
                                  _F(JUSQU_A=30,
                                     NOMBRE=2000,),
                                  _F (JUSQU_A=50,
                                     NOMBRE=2000,),),);
TEMPS2=DEFI_LIST_REEL(DEBUT=0,
                      INTERVALLE=(_F(JUSQU_A=10,
                                     NOMBRE=400,),
                                  _F(JUSQU_A=30,
                                     NOMBRE=800,),
                                  _F (JUSQU_A=50,
                                     NOMBRE=800,),),);

DEFLIST1 =DEFI_LIST_INST(DEFI_LIST=_F(LIST_INST = TEMPS1),
                        ECHEC=_F(EVENEMENT     = 'ERREUR',
                                 ACTION        = 'DECOUPE',
                                 SUBD_METHODE  = 'MANUEL',
                                 SUBD_PAS=2,
                                 SUBD_NIVEAU=10),)

DEFLIST2 =DEFI_LIST_INST(DEFI_LIST=_F(LIST_INST = TEMPS2),
                        ECHEC=_F(EVENEMENT     = 'ERREUR',
                                 ACTION        = 'DECOUPE',
                                 SUBD_METHODE  = 'MANUEL',
                                 SUBD_PAS=2,
                                 SUBD_NIVEAU=10),)

################################################################
#ESSAI DE CISAILLEMENT CYCLIQUE A 0.2% DE DEFORMATIONS IMPOSEES#
################################################################

#Valeur de P0 non prise en compte dans le modèle
P0=-50e3

COEF1=DEFI_FONCTION(NOM_PARA='INST',VALE=(0,0,
                          10,-0.002,
                          30,0.002,
                          50,-0.002,),PROL_DROITE='CONSTANT',);

COEF2=DEFI_FONCTION(NOM_PARA='INST',VALE=(0,P0,
                          50,P0,),PROL_DROITE='CONSTANT',);

COEF3=DEFI_FONCTION(NOM_PARA='INST',VALE=(0,0,
                          50,0.,
                          ),PROL_DROITE='CONSTANT',);




U1=SIMU_POINT_MAT(COMPORTEMENT=_F(RELATION='Iwan',
                               RESI_INTE_RELA=1E-8,
                               ITER_INTE_MAXI=200,
                                ),
                  MATER=MATE,
                  INCREMENT=_F(LIST_INST=DEFLIST1,
                               NUME_INST_INIT=0,
                               INST_FIN=50.,),
                  NEWTON=_F(MATRICE='TANGENTE',
                            REAC_ITER=1,),
                  CONVERGENCE=_F(RESI_GLOB_MAXI = 1.E-6,
                                 ITER_GLOB_MAXI = 10),
                  ARCHIVAGE=_F(LIST_INST=TEMPS2,),
                  SIGM_IMPOSE=_F(SIXX=COEF2,
                                 SIYY=COEF2,
                                 SIZZ=COEF2,),
                  EPSI_IMPOSE=_F(EPXY=COEF1,),
                  SIGM_INIT=_F(SIXX=P0,
                               SIYY=P0,
                               SIZZ=P0,),
                  EPSI_INIT=_F(EPXX=P0/(3*K),
                               EPYY=P0/(3*K),
                               EPZZ=P0/(3*K),
                               EPXY=0,
                               EPXZ=0,
                               EPYZ=0,),);

IMPR_TABLE(TABLE=U1,UNITE=29);

#################################################################
#ESSAI DE CISAILLEMENT CYCLIQUE A 0.02% DE DEFORMATIONS IMPOSEES#
#################################################################
COEF4=DEFI_FONCTION(NOM_PARA='INST',VALE=(0,0,
                          10,-0.0002,
                          30,0.0002,
                          50,-0.0002,),PROL_DROITE='CONSTANT',);

U2=SIMU_POINT_MAT(COMPORTEMENT=_F(RELATION='Iwan',
                               RESI_INTE_RELA=1E-8,
                               ITER_INTE_MAXI=100,
                                ),
                  MATER=MATE,
                  INCREMENT=_F(LIST_INST=DEFLIST1,
                               NUME_INST_INIT=0,
                               INST_FIN=50.,),
                  NEWTON=_F(MATRICE='TANGENTE',
                            REAC_ITER=1,),
                  CONVERGENCE=_F(RESI_GLOB_RELA = 1.E-6,
                                 ITER_GLOB_MAXI = 10),
                  ARCHIVAGE=_F(LIST_INST=TEMPS2,),
                  SIGM_IMPOSE=_F(SIXX=COEF2,
                                 SIYY=COEF2,
                                 SIZZ=COEF2,),
                  EPSI_IMPOSE=_F(EPXY=COEF4,),
                  SIGM_INIT=_F(SIXX=P0,
                               SIYY=P0,
                               SIZZ=P0,),
                  EPSI_INIT=_F(EPXX=P0/(3*K),
                               EPYY=P0/(3*K),
                               EPZZ=P0/(3*K),
                               EPXY=0,
                               EPXZ=0,
                               EPYZ=0,),);

IMPR_TABLE(TABLE=U2,UNITE=30);

##################################################################
#ESSAI DE CISAILLEMENT CYCLIQUE A 0.002% DE DEFORMATIONS IMPOSEES#
##################################################################
COEF5=DEFI_FONCTION(NOM_PARA='INST',VALE=(0,0,
                          10,-2.E-5,
                          30,2.E-5,
                          50,-2.E-5,),PROL_DROITE='CONSTANT',);

U3=SIMU_POINT_MAT(COMPORTEMENT=_F(RELATION='Iwan',
                               RESI_INTE_RELA=1E-8,
                               #ITER_INTE_MAXI=200,
                                ),
                  MATER=MATE,
                  INCREMENT=_F(LIST_INST=DEFLIST2,
                               NUME_INST_INIT=0,
                               INST_FIN=50.,),
                  NEWTON=_F(MATRICE='TANGENTE',
                            REAC_ITER=1,),
                  CONVERGENCE=_F(RESI_GLOB_RELA = 1.E-6,
                                 ITER_GLOB_MAXI = 10),
                  ARCHIVAGE=_F(LIST_INST=TEMPS2,),
                  SIGM_IMPOSE=_F(SIXX=COEF2,
                                 SIYY=COEF2,
                                 SIZZ=COEF2,),
                  EPSI_IMPOSE=_F(EPXY=COEF5,),
                  SIGM_INIT=_F(SIXX=P0,
                               SIYY=P0,
                               SIZZ=P0,),
                  EPSI_INIT=_F(EPXX=P0/(3*K),
                               EPYY=P0/(3*K),
                               EPZZ=P0/(3*K),
                               EPXY=0,
                               EPXZ=0,
                               EPYZ=0,),);

IMPR_TABLE(TABLE=U3,UNITE=31);


################################################################
#ESSAI DE CISAILLEMENT CYCLIQUE A 0.2% DE DEFORMATIONS IMPOSEES#
################################################################
# TEST DE DE LA COMPOSANTE XY DES CONTRAINTES PAR RAPPORT A HUJEUX
TEST_TABLE(CRITERE='RELATIF',
           REFERENCE='AUTRE_ASTER',
           VALE_CALC=-19270.5640459,
           VALE_REFE=-19488.466443205,
           PRECISION=5.E-2,
           NOM_PARA='SIXY',
           TABLE=U1,
           FILTRE=_F(CRITERE='ABSOLU',
                     PRECISION=9.0000000000000006E-05,
                     NOM_PARA='INST',
                     VALE=5.0,),
           )

TEST_TABLE(CRITERE='RELATIF',
           REFERENCE='AUTRE_ASTER',
           VALE_CALC=-23316.7694931,
           VALE_REFE=-24272.532994658,
           PRECISION=5.E-2,
           NOM_PARA='SIXY',
           TABLE=U1,
           FILTRE=_F(CRITERE='ABSOLU',
                     PRECISION=9.0000000000000006E-05,
                     NOM_PARA='INST',
                     VALE=10.0,),
           )

TEST_TABLE(CRITERE='RELATIF',
           REFERENCE='AUTRE_ASTER',
           VALE_CALC= 15228.3800807,
           VALE_REFE= 14771.427020076,
           PRECISION=5.E-2,
           NOM_PARA='SIXY',
           TABLE=U1,
           FILTRE=_F(CRITERE='ABSOLU',
                     PRECISION=9.0000000000000006E-05,
                     NOM_PARA='INST',
                     VALE=20.0,),
           )

TEST_TABLE(CRITERE='RELATIF',
           REFERENCE='AUTRE_ASTER',
           VALE_CALC= 23315.5132772,
           VALE_REFE= 24346.990829393,
           PRECISION=5.E-2,
           NOM_PARA='SIXY',
           TABLE=U1,
           FILTRE=_F(CRITERE='ABSOLU',
                     PRECISION=9.0000000000000006E-05,
                     NOM_PARA='INST',
                     VALE=30.0,),
           )

TEST_TABLE(CRITERE='RELATIF',
           REFERENCE='AUTRE_ASTER',
           VALE_CALC=-15228.1639186,
           VALE_REFE=-14787.939443998,
           PRECISION=5.E-2,
           NOM_PARA='SIXY',
           TABLE=U1,
           FILTRE=_F(CRITERE='ABSOLU',
                     PRECISION=9.0000000000000006E-05,
                     NOM_PARA='INST',
                     VALE=40.0,),
           )

TEST_TABLE(CRITERE='RELATIF',
           REFERENCE='AUTRE_ASTER',
           VALE_CALC=-23315.469541,
           VALE_REFE=-24381.246915809,
           PRECISION=5.E-2,
           NOM_PARA='SIXY',
           TABLE=U1,
           FILTRE=_F(CRITERE='ABSOLU',
                     PRECISION=9.0000000000000006E-05,
                     NOM_PARA='INST',
                     VALE=50.0,),
           )


#################################################################
#ESSAI DE CISAILLEMENT CYCLIQUE A 0.02% DE DEFORMATIONS IMPOSEES#
#################################################################
# TEST DE DE LA COMPOSANTE XY DES CONTRAINTES PAR RAPPORT A HUJEUX
TEST_TABLE(CRITERE='RELATIF',
           REFERENCE='AUTRE_ASTER',
           VALE_CALC=-7532.17502946,
           VALE_REFE=-7176.9064750495,
           PRECISION=5.E-2,
           NOM_PARA='SIXY',
           TABLE=U2,
           FILTRE=_F(CRITERE='ABSOLU',
                     PRECISION=9.0000000000000006E-05,
                     NOM_PARA='INST',
                     VALE=5.0,),
           )

TEST_TABLE(CRITERE='RELATIF',
           REFERENCE='AUTRE_ASTER',
           VALE_CALC=-10852.9781787,
           VALE_REFE=-10145.337714444,
           PRECISION=8.E-2,
           NOM_PARA='SIXY',
           TABLE=U2,
           FILTRE=_F(CRITERE='ABSOLU',
                     PRECISION=9.0E-05,
                     NOM_PARA='INST',
                     VALE=10.0,),
           )

TEST_TABLE(CRITERE='RELATIF',
           REFERENCE='AUTRE_ASTER',
           VALE_CALC= 4213.07055785,
           VALE_REFE= 4211.6280455068,
           PRECISION=5.E-2,
           NOM_PARA='SIXY',
           TABLE=U2,
           FILTRE=_F(CRITERE='ABSOLU',
                     PRECISION=9.0E-05,
                     NOM_PARA='INST',
                     VALE=20.0,),
           )

TEST_TABLE(CRITERE='RELATIF',
           REFERENCE='AUTRE_ASTER',
           VALE_CALC= 10852.9310857,
           VALE_REFE= 10168.207641876,
           PRECISION=8.E-2,
           NOM_PARA='SIXY',
           TABLE=U2,
           FILTRE=_F(CRITERE='ABSOLU',
                     PRECISION=9.0E-05,
                     NOM_PARA='INST',
                     VALE=30.0,),
           )

TEST_TABLE(CRITERE='RELATIF',
           REFERENCE='AUTRE_ASTER',
           VALE_CALC=-4213.07619046,
           VALE_REFE=-4187.8912522105,
           PRECISION=5.E-2,
           NOM_PARA='SIXY',
           TABLE=U2,
           FILTRE=_F(CRITERE='ABSOLU',
                     PRECISION=9.0E-05,
                     NOM_PARA='INST',
                     VALE=40.0,),
           )

TEST_TABLE(CRITERE='RELATIF',
           REFERENCE='AUTRE_ASTER',
           VALE_CALC=-10852.9310864,
           VALE_REFE=-10123.83079066,
           PRECISION=8.E-2,
           NOM_PARA='SIXY',
           TABLE=U2,
           FILTRE=_F(CRITERE='ABSOLU',
                     PRECISION=9.0E-05,
                     NOM_PARA='INST',
                     VALE=50.0,),
           )


##################################################################
#ESSAI DE CISAILLEMENT CYCLIQUE A 0.002% DE DEFORMATIONS IMPOSEES#
##################################################################
# TEST DE DE LA COMPOSANTE XY DES CONTRAINTES PAR RAPPORT A HUJEUX
TEST_TABLE(CRITERE='RELATIF',
           REFERENCE='AUTRE_ASTER',
           VALE_CALC=-1297.65875776,
           VALE_REFE=-1259.3243448744,
           PRECISION=5.E-2,
           NOM_PARA='SIXY',
           TABLE=U3,
           FILTRE=_F(CRITERE='ABSOLU',
                     PRECISION=9.0E-05,
                     NOM_PARA='INST',
                     VALE=5.0,),
           )

TEST_TABLE(CRITERE='RELATIF',
           REFERENCE='AUTRE_ASTER',
           VALE_CALC=-2343.93741663,
           VALE_REFE=-2462.7975417813,
           PRECISION=5.E-2,
           NOM_PARA='SIXY',
           TABLE=U3,
           FILTRE=_F(CRITERE='ABSOLU',
                     PRECISION=9.0E-05,
                     NOM_PARA='INST',
                     VALE=10.0,),
           )

TEST_TABLE(CRITERE='RELATIF',
           REFERENCE='AUTRE_ASTER',
           VALE_CALC= 2343.86416193,
           VALE_REFE=2466.8646345014,
           PRECISION=5.E-2,
           NOM_PARA='SIXY',
           TABLE=U3,
           FILTRE=_F(CRITERE='ABSOLU',
                     PRECISION=9.0E-05,
                     NOM_PARA='INST',
                     VALE=30.0,),
           )

TEST_TABLE(CRITERE='RELATIF',
           REFERENCE='AUTRE_ASTER',
           VALE_CALC=-2343.86423947,
           VALE_REFE=-2459.6074144164,
           PRECISION=5.E-2,
           NOM_PARA='SIXY',
           TABLE=U3,
           FILTRE=_F(CRITERE='ABSOLU',
                     PRECISION=9.0E-05,
                     NOM_PARA='INST',
                     VALE=50.0,),
           )


FIN();
