# TITRE : VALIDATION DES CONDITIONS DE NEUMANN AVEC X-FEM EN 3D MAILLAGE
# ======================================================================
# COPYRIGHT (C) 1991 - 2012  EDF R&D                  WWW.CODE-ASTER.ORG
# THIS PROGRAM IS FREE SOFTWARE; YOU CAN REDISTRIBUTE IT AND/OR MODIFY  
# IT UNDER THE TERMS OF THE GNU GENERAL PUBLIC LICENSE AS PUBLISHED BY  
# THE FREE SOFTWARE FOUNDATION; EITHER VERSION 2 OF THE LICENSE, OR     
# (AT YOUR OPTION) ANY LATER VERSION.                                                    
#                                                                       
# THIS PROGRAM IS DISTRIBUTED IN THE HOPE THAT IT WILL BE USEFUL, BUT   
# WITHOUT ANY WARRANTY; WITHOUT EVEN THE IMPLIED WARRANTY OF            
# MERCHANTABILITY OR FITNESS FOR A PARTICULAR PURPOSE. SEE THE GNU      
# GENERAL PUBLIC LICENSE FOR MORE DETAILS.                              
#                                                                       
# YOU SHOULD HAVE RECEIVED A COPY OF THE GNU GENERAL PUBLIC LICENSE     
# ALONG WITH THIS PROGRAM; IF NOT, WRITE TO EDF R&D CODE_ASTER,         
#    1 AVENUE DU GENERAL DE GAULLE, 92141 CLAMART CEDEX, FRANCE.        
# ======================================================================
# QUADRATIQUE

DEBUT(CODE=_F(NIV_PUB_WEB='INTERNET'),DEBUG=_F(SDVERI='OUI'))

# CETTE MODELISATION TESTE L'APPLICATION D'UNE PRESSION (CONSTANTE ET FONCTION)

#----------------------------------------------
#                   MAILLAGE
#----------------------------------------------

# precision
n=1000.

# dimensions de la structure
lx=1.
ly=2.
lz=3.

MA_INIT=LIRE_MAILLAGE(FORMAT='MED',INFO=1);

MAILLAG1=CREA_MAILLAGE(MAILLAGE=MA_INIT,LINE_QUAD=_F(TOUT='OUI'))

MAILLAG1=MODI_MAILLAGE(reuse =MAILLAG1,
                       MAILLAGE=MAILLAG1,
                       ORIE_PEAU_3D=_F(GROUP_MA=('SURFGAU','SURFDRO')),
                       );

MAILLAG1=DEFI_GROUP(reuse =MAILLAG1,
                    MAILLAGE=MAILLAG1,
                    CREA_GROUP_NO=(_F(GROUP_MA=('VOL','SURFSUP','SURFINF')),
                                   _F(NOM='A',OPTION='ENV_SPHERE',POINT=(lx  ,ly/2. ,0. ),PRECISION=1/(4.*n),RAYON=1/(4.*n)),
                                   _F(NOM='B',OPTION='ENV_SPHERE',POINT=(0.  ,ly/2. ,0. ),PRECISION=1/(4.*n),RAYON=1/(4.*n)),
                                   _F(NOM='C',OPTION='ENV_SPHERE',POINT=(lx  ,ly/2. ,3./5. ),PRECISION=1/(4.*n),RAYON=1/(4.*n)),
                                   _F(NOM='D',OPTION='ENV_SPHERE',POINT=(lx  ,ly/2. ,lz ),PRECISION=1/(4.*n),RAYON=1/(4.*n)),
                                   _F(NOM='E',OPTION='ENV_SPHERE',POINT=(0.  ,ly/2. ,lz ),PRECISION=1/(4.*n),RAYON=1/(4.*n)),
                                   _F(NOM='F',OPTION='ENV_SPHERE',POINT=(lx  ,ly/2. ,lz-3./5. ),PRECISION=1/(4.*n),RAYON=1/(4.*n)),
                                   _F(NOM='SURFGAU',OPTION='PLAN',POINT=(0.,0.,0.),VECT_NORMALE=(0.,1.,0.),PRECISION=1/(4.*n)),
                                   _F(NOM='SURFDRO',OPTION='PLAN',POINT=(0.,ly,0.),VECT_NORMALE=(0.,1.,0.),PRECISION=1/(4.*n)),
                                  ),
                    INFO=2);

#----------------------------------------------
#                   MODELE ET FISSURE
#----------------------------------------------

MODELEIN=AFFE_MODELE(MAILLAGE=MAILLAG1,
                     AFFE=_F(GROUP_MA=('VOL','SURFGAU','SURFDRO'),
                              PHENOMENE='MECANIQUE',
                              MODELISATION='3D'),
                     );

LN=FORMULE(NOM_PARA=('X','Y','Z'),VALE='Z-1.5');

FISS=DEFI_FISS_XFEM(MODELE=MODELEIN,
                    TYPE_DISCONTINUITE='INTERFACE',
                    DEFI_FISS=_F(FONC_LN=LN),
                    GROUP_MA_ENRI='VOL');



MODELEK=MODI_MODELE_XFEM(MODELE_IN=MODELEIN,FISSURE=FISS,INFO=1);


#----------------------------------------------
#                   MATERIAU
#----------------------------------------------

E=1.E10
nu=0.
rho=7800.
ACIER=DEFI_MATERIAU(ELAS=_F(E=E,NU=nu,RHO=rho));

CHAMPMAT=AFFE_MATERIAU(MAILLAGE=MAILLAG1,
                       MODELE=MODELEK,
                       AFFE=_F(GROUP_MA=('VOL'),
                                MATER=ACIER,
                                ),
                             );

#----------------------------------------------
#                   CHARGEMENTS
#----------------------------------------------

CH=AFFE_CHAR_MECA(MODELE=MODELEK,
                          DDL_IMPO=(_F(GROUP_NO='A',DX=0.0,DY=0.0,DZ=0.0),
                                    _F(GROUP_NO='B',       DY=0.0),
                                    _F(GROUP_NO='C',DX=0.0,DY=0.0),
                                    _F(GROUP_NO='D',DX=0.0,DY=0.0,DZ=0.0),
                                    _F(GROUP_NO='E',       DY=0.0),
                                    _F(GROUP_NO='F',DX=0.0,DY=0.0),
                                    ),
                          INFO=1);

# pour tester l'option CHAR_MECA_PRES_R
CH1=AFFE_CHAR_MECA(MODELE=MODELEK,PRES_REP=_F(GROUP_MA=('SURFGAU','SURFDRO'),PRES=10000.));


def pr(z) :
   if z<1.5  :  return -10000.
   if z>1.5  :  return  10000.
   if z==1.5  :  return  0.
FCTPRES=FORMULE(NOM_PARA=('X','Y','Z'),VALE='pr(Z)');
# pour tester l'option CHAR_MECA_PRES_F
CH2=AFFE_CHAR_MECA_F(MODELE=MODELEK,PRES_REP=_F(GROUP_MA=('SURFGAU','SURFDRO'),PRES=FCTPRES));

# pour tester l'option CHAR_MECA_FR2D3D
CH3=AFFE_CHAR_MECA(MODELE=MODELEK,
                   FORCE_FACE=(_F(GROUP_MA='SURFGAU',FY=10000.),
                               _F(GROUP_MA='SURFDRO',FY=-10000.),
                             ));

# pour tester l'option CHAR_MECA_FF2D3D
def prinv(z) :
   if z<1.5  :  return  10000.
   if z>1.5  :  return -10000.
   if z==1.5  :  return  0.
FCTPRES2=FORMULE(NOM_PARA=('X','Y','Z'),VALE='prinv(Z)');
CH4=AFFE_CHAR_MECA_F(MODELE=MODELEK,
                     FORCE_FACE=(_F(GROUP_MA='SURFGAU',FY=FCTPRES),
                               _F(GROUP_MA='SURFDRO',FY=FCTPRES2),
                              ));

#----------------------------------------------
#                   RESOLUTION
#----------------------------------------------

L_INS=DEFI_LIST_REEL(DEBUT=0.0,INTERVALLE=_F(JUSQU_A=3.0,NOMBRE=3));

UTOT1=MECA_STATIQUE(MODELE=MODELEK,
                   CHAM_MATER=CHAMPMAT,
                   EXCIT=(
                          _F(CHARGE=CH),
                          _F(CHARGE=CH1),
                          ),
                   SOLVEUR=_F( METHODE='MUMPS',
                               TYPE_RESOL='AUTO'),
                   INFO=1,
                   ); 
UTOT2=MECA_STATIQUE(MODELE=MODELEK,
                   CHAM_MATER=CHAMPMAT,
                   EXCIT=(
                          _F(CHARGE=CH),
                          _F(CHARGE=CH2),
                          ),
                   SOLVEUR=_F( METHODE='MUMPS',
                               TYPE_RESOL='AUTO'),
                   INFO=1,
                   ); 
UTOT3=MECA_STATIQUE(MODELE=MODELEK,
                   CHAM_MATER=CHAMPMAT,
                   EXCIT=(
                          _F(CHARGE=CH),
                          _F(CHARGE=CH3),
                          ),
                   SOLVEUR=_F( METHODE='MUMPS',
                               TYPE_RESOL='AUTO'),
                   INFO=1,
                   ); 
UTOT4=MECA_STATIQUE(MODELE=MODELEK,
                   CHAM_MATER=CHAMPMAT,
                   EXCIT=(
                          _F(CHARGE=CH),
                          _F(CHARGE=CH4),
                          ),
                   SOLVEUR=_F( METHODE='MUMPS',
                               TYPE_RESOL='AUTO'),
                   INFO=1,
                   ); 
#----------------------------------------------
#             IMPRESSION
#----------------------------------------------

MA_XFEM=POST_MAIL_XFEM(
                       MODELE        = MODELEK)

IMPR_RESU(FORMAT='RESULTAT',RESU=_F(MAILLAGE = MA_XFEM))
IMPR_RESU(FORMAT='GMSH',UNITE=81,RESU=_F(MAILLAGE = MA_XFEM))



MOD_VISU=AFFE_MODELE(MAILLAGE=MA_XFEM,
                     AFFE=(_F(GROUP_MA=('VOL'),
                              PHENOMENE='MECANIQUE',
                              MODELISATION='3D')),
                              );  

RES_X1=POST_CHAM_XFEM(MODELE_VISU   = MOD_VISU,
                        RESULTAT      = UTOT1,
                        )

RES_X2=POST_CHAM_XFEM(MODELE_VISU   = MOD_VISU,
                        RESULTAT      = UTOT2,
                        )

RES_X3=POST_CHAM_XFEM(MODELE_VISU   = MOD_VISU,
                        RESULTAT      = UTOT3,
                        )

RES_X4=POST_CHAM_XFEM(MODELE_VISU   = MOD_VISU,
                        RESULTAT      = UTOT4,
                        )

#IMPR_RESU(FORMAT='GMSH',UNITE=82,RESU=_F(RESULTAT=RES_X1));

#----------------------------------------------
#                  TESTS
#----------------------------------------------

#PREMIER CHARGEMENT

DEP1=POST_RELEVE_T(ACTION=_F(INTITULE='DEPLE',
                                GROUP_NO=('NFISSU'),
                                RESULTAT=RES_X1,
                                NOM_CHAM='DEPL',
                                NUME_ORDRE=1,
                                TOUT_CMP='OUI',
                                OPERATION='EXTRACTION'));

IMPR_TABLE(TABLE=DEP1);


DEP1P = CALC_TABLE(TABLE = DEP1,
                  ACTION = (_F(OPERATION = 'FILTRE',
                               NOM_PARA  = 'NOEUD',
                               CRIT_COMP = 'REGEXP',
                               VALE_K    = 'N[^P]')));


DEP1M = CALC_TABLE(TABLE = DEP1,
                  ACTION = (_F(OPERATION = 'FILTRE',
                               NOM_PARA  = 'NOEUD',
                               CRIT_COMP = 'REGEXP',
                               VALE_K    = 'N[^M]')));

TEST_TABLE(CRITERE='RELATIF',
           REFERENCE='ANALYTIQUE',
           PRECISION=9.9999999999999994E-12,
           VALE_CALC= 1.00000000000E-06,
           VALE_REFE=9.9999999999999995E-07,
           NOM_PARA='DY',
           TYPE_TEST='MIN',
           TABLE=DEP1P,
           FILTRE=_F(NOM_PARA='COOR_Y',
                     VALE=0,),
           )

TEST_TABLE(CRITERE='RELATIF',
           REFERENCE='ANALYTIQUE',
           PRECISION=9.9999999999999994E-12,
           VALE_CALC= 1.00000000000E-06,
           VALE_REFE=9.9999999999999995E-07,
           NOM_PARA='DY',
           TYPE_TEST='MAX',
           TABLE=DEP1P,
           FILTRE=_F(NOM_PARA='COOR_Y',
                     VALE=0,),
           )

TEST_TABLE(CRITERE='RELATIF',
           REFERENCE='ANALYTIQUE',
           PRECISION=9.9999999999999994E-12,
           VALE_CALC=-1.00000000000E-06,
           VALE_REFE=-9.9999999999999995E-07,
           NOM_PARA='DY',
           TYPE_TEST='MIN',
           TABLE=DEP1P,
           FILTRE=_F(NOM_PARA='COOR_Y',
                     VALE=2.0,),
           )

TEST_TABLE(CRITERE='RELATIF',
           REFERENCE='ANALYTIQUE',
           PRECISION=9.9999999999999994E-12,
           VALE_CALC=-1.00000000000E-06,
           VALE_REFE=-9.9999999999999995E-07,
           NOM_PARA='DY',
           TYPE_TEST='MAX',
           TABLE=DEP1P,
           FILTRE=_F(NOM_PARA='COOR_Y',
                     VALE=2.0,),
           )

TEST_TABLE(CRITERE='RELATIF',
           REFERENCE='ANALYTIQUE',
           PRECISION=9.9999999999999994E-12,
           VALE_CALC= 1.00000000000E-06,
           VALE_REFE=9.9999999999999995E-07,
           NOM_PARA='DY',
           TYPE_TEST='MIN',
           TABLE=DEP1M,
           FILTRE=_F(NOM_PARA='COOR_Y',
                     VALE=0,),
           )

TEST_TABLE(CRITERE='RELATIF',
           REFERENCE='ANALYTIQUE',
           PRECISION=9.9999999999999994E-12,
           VALE_CALC= 1.00000000000E-06,
           VALE_REFE=9.9999999999999995E-07,
           NOM_PARA='DY',
           TYPE_TEST='MAX',
           TABLE=DEP1M,
           FILTRE=_F(NOM_PARA='COOR_Y',
                     VALE=0,),
           )

TEST_TABLE(CRITERE='RELATIF',
           REFERENCE='ANALYTIQUE',
           PRECISION=9.9999999999999994E-12,
           VALE_CALC=-1.00000000000E-06,
           VALE_REFE=-9.9999999999999995E-07,
           NOM_PARA='DY',
           TYPE_TEST='MIN',
           TABLE=DEP1M,
           FILTRE=_F(NOM_PARA='COOR_Y',
                     VALE=2.0,),
           )

TEST_TABLE(CRITERE='RELATIF',
           REFERENCE='ANALYTIQUE',
           PRECISION=9.9999999999999994E-12,
           VALE_CALC=-1.00000000000E-06,
           VALE_REFE=-9.9999999999999995E-07,
           NOM_PARA='DY',
           TYPE_TEST='MAX',
           TABLE=DEP1M,
           FILTRE=_F(NOM_PARA='COOR_Y',
                     VALE=2.0,),
           )

#DEUXIEME CHARGEMENT

DEP2=POST_RELEVE_T(ACTION=_F(INTITULE='DEPLE',
                                GROUP_NO=('NFISSU'),
                                RESULTAT=RES_X2,
                                NOM_CHAM='DEPL',
                                NUME_ORDRE=1,
                                TOUT_CMP='OUI',
                                OPERATION='EXTRACTION'));

IMPR_TABLE(TABLE=DEP1);


DEP2P = CALC_TABLE(TABLE = DEP2,
                  ACTION = (_F(OPERATION = 'FILTRE',
                               NOM_PARA  = 'NOEUD',
                               CRIT_COMP = 'REGEXP',
                               VALE_K    = 'N[^P]')));


DEP2M = CALC_TABLE(TABLE = DEP2,
                  ACTION = (_F(OPERATION = 'FILTRE',
                               NOM_PARA  = 'NOEUD',
                               CRIT_COMP = 'REGEXP',
                               VALE_K    = 'N[^M]')));

TEST_TABLE(CRITERE='RELATIF',
           REFERENCE='ANALYTIQUE',
           PRECISION=9.9999999999999994E-12,
           VALE_CALC=-1.00000000000E-06,
           VALE_REFE=-9.9999999999999995E-07,
           NOM_PARA='DY',
           TYPE_TEST='MIN',
           TABLE=DEP2P,
           FILTRE=_F(NOM_PARA='COOR_Y',
                     VALE=0,),
           )

TEST_TABLE(CRITERE='RELATIF',
           REFERENCE='ANALYTIQUE',
           PRECISION=9.9999999999999994E-12,
           VALE_CALC=-1.00000000000E-06,
           VALE_REFE=-9.9999999999999995E-07,
           NOM_PARA='DY',
           TYPE_TEST='MAX',
           TABLE=DEP2P,
           FILTRE=_F(NOM_PARA='COOR_Y',
                     VALE=0,),
           )

TEST_TABLE(CRITERE='RELATIF',
           REFERENCE='ANALYTIQUE',
           PRECISION=9.9999999999999994E-12,
           VALE_CALC= 1.00000000000E-06,
           VALE_REFE=9.9999999999999995E-07,
           NOM_PARA='DY',
           TYPE_TEST='MIN',
           TABLE=DEP2P,
           FILTRE=_F(NOM_PARA='COOR_Y',
                     VALE=2.0,),
           )

TEST_TABLE(CRITERE='RELATIF',
           REFERENCE='ANALYTIQUE',
           PRECISION=9.9999999999999994E-12,
           VALE_CALC= 1.00000000000E-06,
           VALE_REFE=9.9999999999999995E-07,
           NOM_PARA='DY',
           TYPE_TEST='MAX',
           TABLE=DEP2P,
           FILTRE=_F(NOM_PARA='COOR_Y',
                     VALE=2.0,),
           )

TEST_TABLE(CRITERE='RELATIF',
           REFERENCE='ANALYTIQUE',
           PRECISION=9.9999999999999994E-12,
           VALE_CALC= 1.00000000000E-06,
           VALE_REFE=9.9999999999999995E-07,
           NOM_PARA='DY',
           TYPE_TEST='MIN',
           TABLE=DEP2M,
           FILTRE=_F(NOM_PARA='COOR_Y',
                     VALE=0,),
           )

TEST_TABLE(CRITERE='RELATIF',
           REFERENCE='ANALYTIQUE',
           PRECISION=9.9999999999999994E-12,
           VALE_CALC= 1.00000000000E-06,
           VALE_REFE=9.9999999999999995E-07,
           NOM_PARA='DY',
           TYPE_TEST='MAX',
           TABLE=DEP2M,
           FILTRE=_F(NOM_PARA='COOR_Y',
                     VALE=0,),
           )

TEST_TABLE(CRITERE='RELATIF',
           REFERENCE='ANALYTIQUE',
           PRECISION=9.9999999999999994E-12,
           VALE_CALC=-1.00000000000E-06,
           VALE_REFE=-9.9999999999999995E-07,
           NOM_PARA='DY',
           TYPE_TEST='MIN',
           TABLE=DEP2M,
           FILTRE=_F(NOM_PARA='COOR_Y',
                     VALE=2.0,),
           )

TEST_TABLE(CRITERE='RELATIF',
           REFERENCE='ANALYTIQUE',
           PRECISION=9.9999999999999994E-12,
           VALE_CALC=-1.00000000000E-06,
           VALE_REFE=-9.9999999999999995E-07,
           NOM_PARA='DY',
           TYPE_TEST='MAX',
           TABLE=DEP2M,
           FILTRE=_F(NOM_PARA='COOR_Y',
                     VALE=2.0,),
           )

#TROISIEME CHARGEMENT

DEP3=POST_RELEVE_T(ACTION=_F(INTITULE='DEPLE',
                                GROUP_NO=('NFISSU'),
                                RESULTAT=RES_X3,
                                NOM_CHAM='DEPL',
                                NUME_ORDRE=1,
                                TOUT_CMP='OUI',
                                OPERATION='EXTRACTION'));

IMPR_TABLE(TABLE=DEP3);


DEP3P = CALC_TABLE(TABLE = DEP3,
                  ACTION = (_F(OPERATION = 'FILTRE',
                               NOM_PARA  = 'NOEUD',
                               CRIT_COMP = 'REGEXP',
                               VALE_K    = 'N[^P]')));
IMPR_TABLE(TABLE=DEP3P);


DEP3M = CALC_TABLE(TABLE = DEP3,
                  ACTION = (_F(OPERATION = 'FILTRE',
                               NOM_PARA  = 'NOEUD',
                               CRIT_COMP = 'REGEXP',
                               VALE_K    = 'N[^M]')));
IMPR_TABLE(TABLE=DEP3M);

TEST_TABLE(CRITERE='RELATIF',
           REFERENCE='ANALYTIQUE',
           PRECISION=9.9999999999999994E-12,
           VALE_CALC= 1.00000000000E-06,
           VALE_REFE=9.9999999999999995E-07,
           NOM_PARA='DY',
           TYPE_TEST='MIN',
           TABLE=DEP3P,
           FILTRE=_F(NOM_PARA='COOR_Y',
                     VALE=0,),
           )

TEST_TABLE(CRITERE='RELATIF',
           REFERENCE='ANALYTIQUE',
           PRECISION=9.9999999999999994E-12,
           VALE_CALC= 1.00000000000E-06,
           VALE_REFE=9.9999999999999995E-07,
           NOM_PARA='DY',
           TYPE_TEST='MAX',
           TABLE=DEP3P,
           FILTRE=_F(NOM_PARA='COOR_Y',
                     VALE=0,),
           )

TEST_TABLE(CRITERE='RELATIF',
           REFERENCE='ANALYTIQUE',
           PRECISION=9.9999999999999994E-12,
           VALE_CALC=-1.00000000000E-06,
           VALE_REFE=-9.9999999999999995E-07,
           NOM_PARA='DY',
           TYPE_TEST='MIN',
           TABLE=DEP3P,
           FILTRE=_F(NOM_PARA='COOR_Y',
                     VALE=2.0,),
           )

TEST_TABLE(CRITERE='RELATIF',
           REFERENCE='ANALYTIQUE',
           PRECISION=9.9999999999999994E-12,
           VALE_CALC=-1.00000000000E-06,
           VALE_REFE=-9.9999999999999995E-07,
           NOM_PARA='DY',
           TYPE_TEST='MAX',
           TABLE=DEP3P,
           FILTRE=_F(NOM_PARA='COOR_Y',
                     VALE=2.0,),
           )

TEST_TABLE(CRITERE='RELATIF',
           REFERENCE='ANALYTIQUE',
           PRECISION=9.9999999999999994E-12,
           VALE_CALC= 1.00000000000E-06,
           VALE_REFE=9.9999999999999995E-07,
           NOM_PARA='DY',
           TYPE_TEST='MIN',
           TABLE=DEP3M,
           FILTRE=_F(NOM_PARA='COOR_Y',
                     VALE=0,),
           )

TEST_TABLE(CRITERE='RELATIF',
           REFERENCE='ANALYTIQUE',
           PRECISION=9.9999999999999994E-12,
           VALE_CALC= 1.00000000000E-06,
           VALE_REFE=9.9999999999999995E-07,
           NOM_PARA='DY',
           TYPE_TEST='MAX',
           TABLE=DEP3M,
           FILTRE=_F(NOM_PARA='COOR_Y',
                     VALE=0,),
           )

TEST_TABLE(CRITERE='RELATIF',
           REFERENCE='ANALYTIQUE',
           PRECISION=9.9999999999999994E-12,
           VALE_CALC=-1.00000000000E-06,
           VALE_REFE=-9.9999999999999995E-07,
           NOM_PARA='DY',
           TYPE_TEST='MIN',
           TABLE=DEP3M,
           FILTRE=_F(NOM_PARA='COOR_Y',
                     VALE=2.0,),
           )

TEST_TABLE(CRITERE='RELATIF',
           REFERENCE='ANALYTIQUE',
           PRECISION=9.9999999999999994E-12,
           VALE_CALC=-1.00000000000E-06,
           VALE_REFE=-9.9999999999999995E-07,
           NOM_PARA='DY',
           TYPE_TEST='MAX',
           TABLE=DEP3M,
           FILTRE=_F(NOM_PARA='COOR_Y',
                     VALE=2.0,),
           )

#QUATRIEME CHARGEMENT

DEP4=POST_RELEVE_T(ACTION=_F(INTITULE='DEPLE',
                                GROUP_NO=('NFISSU'),
                                RESULTAT=RES_X4,
                                NOM_CHAM='DEPL',
                                NUME_ORDRE=1,
                                TOUT_CMP='OUI',
                                OPERATION='EXTRACTION'));

IMPR_TABLE(TABLE=DEP4);


DEP4P = CALC_TABLE(TABLE = DEP4,
                  ACTION = (_F(OPERATION = 'FILTRE',
                               NOM_PARA  = 'NOEUD',
                               CRIT_COMP = 'REGEXP',
                               VALE_K    = 'N[^P]')));


DEP4M = CALC_TABLE(TABLE = DEP4,
                  ACTION = (_F(OPERATION = 'FILTRE',
                               NOM_PARA  = 'NOEUD',
                               CRIT_COMP = 'REGEXP',
                               VALE_K    = 'N[^M]')));

TEST_TABLE(CRITERE='RELATIF',
           REFERENCE='ANALYTIQUE',
           PRECISION=9.9999999999999994E-12,
           VALE_CALC=-1.00000000000E-06,
           VALE_REFE=-9.9999999999999995E-07,
           NOM_PARA='DY',
           TYPE_TEST='MIN',
           TABLE=DEP4P,
           FILTRE=_F(NOM_PARA='COOR_Y',
                     VALE=0,),
           )

TEST_TABLE(CRITERE='RELATIF',
           REFERENCE='ANALYTIQUE',
           PRECISION=9.9999999999999994E-12,
           VALE_CALC=-1.00000000000E-06,
           VALE_REFE=-9.9999999999999995E-07,
           NOM_PARA='DY',
           TYPE_TEST='MAX',
           TABLE=DEP4P,
           FILTRE=_F(NOM_PARA='COOR_Y',
                     VALE=0,),
           )

TEST_TABLE(CRITERE='RELATIF',
           REFERENCE='ANALYTIQUE',
           PRECISION=9.9999999999999994E-12,
           VALE_CALC= 1.00000000000E-06,
           VALE_REFE=9.9999999999999995E-07,
           NOM_PARA='DY',
           TYPE_TEST='MIN',
           TABLE=DEP4P,
           FILTRE=_F(NOM_PARA='COOR_Y',
                     VALE=2.0,),
           )

TEST_TABLE(CRITERE='RELATIF',
           REFERENCE='ANALYTIQUE',
           PRECISION=9.9999999999999994E-12,
           VALE_CALC= 1.00000000000E-06,
           VALE_REFE=9.9999999999999995E-07,
           NOM_PARA='DY',
           TYPE_TEST='MAX',
           TABLE=DEP4P,
           FILTRE=_F(NOM_PARA='COOR_Y',
                     VALE=2.0,),
           )

TEST_TABLE(CRITERE='RELATIF',
           REFERENCE='ANALYTIQUE',
           PRECISION=9.9999999999999994E-12,
           VALE_CALC= 1.00000000000E-06,
           VALE_REFE=9.9999999999999995E-07,
           NOM_PARA='DY',
           TYPE_TEST='MIN',
           TABLE=DEP4M,
           FILTRE=_F(NOM_PARA='COOR_Y',
                     VALE=0,),
           )

TEST_TABLE(CRITERE='RELATIF',
           REFERENCE='ANALYTIQUE',
           PRECISION=9.9999999999999994E-12,
           VALE_CALC= 1.00000000000E-06,
           VALE_REFE=9.9999999999999995E-07,
           NOM_PARA='DY',
           TYPE_TEST='MAX',
           TABLE=DEP4M,
           FILTRE=_F(NOM_PARA='COOR_Y',
                     VALE=0,),
           )

TEST_TABLE(CRITERE='RELATIF',
           REFERENCE='ANALYTIQUE',
           PRECISION=9.9999999999999994E-12,
           VALE_CALC=-1.00000000000E-06,
           VALE_REFE=-9.9999999999999995E-07,
           NOM_PARA='DY',
           TYPE_TEST='MIN',
           TABLE=DEP4M,
           FILTRE=_F(NOM_PARA='COOR_Y',
                     VALE=2.0,),
           )

TEST_TABLE(CRITERE='RELATIF',
           REFERENCE='ANALYTIQUE',
           PRECISION=9.9999999999999994E-12,
           VALE_CALC=-1.00000000000E-06,
           VALE_REFE=-9.9999999999999995E-07,
           NOM_PARA='DY',
           TYPE_TEST='MAX',
           TABLE=DEP4M,
           FILTRE=_F(NOM_PARA='COOR_Y',
                     VALE=2.0,),
           )

FIN();
