# MODIF  DATE 13/01/2011   AUTEUR PELLET J.PELLET 
# TITRE CONTACT AVEC FROTTEMENT D'UNE PLAQUE SUR UN PLAN RIGIDE
# ssnv128b.para = tps_job 190 mem_job 300Mo ncpus 1 liste_test S
#            CONFIGURATION MANAGEMENT OF EDF VERSION
# ======================================================================
# COPYRIGHT (C) 1991 - 2011  EDF R&D                  WWW.CODE-ASTER.ORG
# THIS PROGRAM IS FREE SOFTWARE; YOU CAN REDISTRIBUTE IT AND/OR MODIFY  
# IT UNDER THE TERMS OF THE GNU GENERAL PUBLIC LICENSE AS PUBLISHED BY  
# THE FREE SOFTWARE FOUNDATION; EITHER VERSION 2 OF THE LICENSE, OR     
# (AT YOUR OPTION) ANY LATER VERSION.                                                    
#                                                                       
# THIS PROGRAM IS DISTRIBUTED IN THE HOPE THAT IT WILL BE USEFUL, BUT   
# WITHOUT ANY WARRANTY; WITHOUT EVEN THE IMPLIED WARRANTY OF            
# MERCHANTABILITY OR FITNESS FOR A PARTICULAR PURPOSE. SEE THE GNU      
# GENERAL PUBLIC LICENSE FOR MORE DETAILS.                              
#                                                                       
# YOU SHOULD HAVE RECEIVED A COPY OF THE GNU GENERAL PUBLIC LICENSE     
# ALONG WITH THIS PROGRAM; IF NOT, WRITE TO EDF R&D CODE_ASTER,         
#    1 AVENUE DU GENERAL DE GAULLE, 92141 CLAMART CEDEX, FRANCE.        
# ======================================================================
# ssnv128b.para = tps_job 190 mem_job 300Mo ncpus 1 liste_test S
#            CONFIGURATION MANAGEMENT OF EDF VERSION
# ======================================================================
# CAS_TEST__:SSNV128B
# TEST DU GRECO CALCUL 2D
# MODELE
# MAILLAGE : ELEMENT 2D QUADRANGLE A 8 NOEUDS
# UNITES   : NEWTON , METRE , SECONDE (N,M,S)
#

DEBUT( CODE=_F(  NOM = 'SSNV128B',NIV_PUB_WEB='INTERNET'),
      IGNORE_ALARM=('CALCULEL2_63'))

#......................................................................
#  CALCUL TEST ELEMENTS FINIS DE CONTACT 2D QUAD8
#  PLAQUE AVEC CONTACT ET FROTTEMENT SUR UN PLAN RIGIDE
#......................................................................

PRE_GIBI()
#
MA=LIRE_MAILLAGE(VERI_MAIL=_F(VERIF='OUI'),)
#
MO=AFFE_MODELE(MAILLAGE=MA,
               AFFE=_F(TOUT = 'OUI',
                       PHENOMENE = 'MECANIQUE',
                       MODELISATION = 'D_PLAN',)
              )
#
MA=MODI_MAILLAGE(reuse=MA,
                 MAILLAGE=MA,
                 ORIE_PEAU_2D=(_F(GROUP_MA = 'LPRESV',),
                               _F(GROUP_MA = 'LPRESH',))
                )
#
MATPLA=DEFI_MATERIAU(ELAS=_F(E = 1.3E11,
                             NU = 0.2,)
                    )
#
CHMAT=AFFE_MATERIAU(MAILLAGE=MA,
                    AFFE=_F(TOUT = 'OUI',
                             MATER = MATPLA,)
                    )
#
CHA1=AFFE_CHAR_MECA(MODELE=MO,
                    DDL_IMPO=(_F(GROUP_MA = 'LBATI',  DX = 0.0, DY = 0.0,),
                              _F(GROUP_NO = 'PPS',    DX = 0.0, DY = 0.0,),
                              _F(GROUP_MA = 'LBLOCX', DX = 0.0,)),
                    PRES_REP=(_F(GROUP_MA = 'LPRESV', PRES = 5.E07,),
                              _F(GROUP_MA = 'LPRESH', PRES = 15.E07,))
                   )
#
CHA2=DEFI_CONTACT(MODELE         = MO,
                  FORMULATION    = 'DISCRETE',
                  FROTTEMENT     = 'COULOMB',
                  REAC_GEOM      = 'CONTROLE',
                  NB_ITER_GEOM   = 2,
                  ZONE=_F(
                          GROUP_MA_MAIT  = 'LBATI',
                          GROUP_MA_ESCL  = 'LCONTA',
                          APPARIEMENT    = 'MAIT_ESCL',
                          NORMALE        = 'MAIT',
                          ALGO_CONT      = 'LAGRANGIEN',
                          ALGO_FROT      = 'LAGRANGIEN',
                          COEF_MATR_FROT = 0.8,
                          COULOMB        = 1.0,
                        )
                  )

#
CHA3=DEFI_CONTACT(MODELE         = MO,
                  FORMULATION    = 'DISCRETE',
                  FROTTEMENT     = 'COULOMB',
                  REAC_GEOM      = 'SANS',
                  ZONE=_F(
                          GROUP_MA_MAIT  = 'LBATI',
                          GROUP_MA_ESCL  = 'LCONTA',
                          APPARIEMENT    = 'MAIT_ESCL',
                          NORMALE        = 'MAIT',
                          ALGO_CONT      = 'PENALISATION',
                          ALGO_FROT      = 'PENALISATION',
                          E_T            = 1.0E11,
                          E_N            = 1.0E15,
                          COULOMB        = 1.0,
                        )
                  )
#
RAMPE=DEFI_FONCTION(NOM_PARA='INST',
                    PROL_GAUCHE='LINEAIRE',
                    PROL_DROITE='LINEAIRE',
                    VALE=(0.0,0.0,1.0,1.0,)
                    )
#
L_INST=DEFI_LIST_REEL(DEBUT=0.,
                      INTERVALLE=_F(JUSQU_A = 1.0, NOMBRE = 5,)
                      )
#
#-----------------------------------------------------------
#
U2M=STAT_NON_LINE(SOLVEUR=_F(SYME='OUI',),
                  MODELE    = MO,
                  CHAM_MATER = CHMAT,
                  EXCIT      =(_F(CHARGE = CHA1,
                                  FONC_MULT = RAMPE,),
                               ),
                  CONTACT    = CHA2,             
                  COMP_ELAS  = _F(RELATION = 'ELAS',),
                  INCREMENT  = _F(LIST_INST = L_INST,),
                  CONVERGENCE= _F(ARRET = 'OUI',
                                 ITER_GLOB_MAXI = 200,
                                 RESI_GLOB_RELA = 1.0E-5,),
#                  INFO=2,
               )
#
U2M=CALC_ELEM(reuse=U2M,
              OPTION=('SIEF_ELNO', 'VARI_ELNO_ELGA',),
              RESULTAT=U2M,
             )
#
DEPL2M=CREA_CHAMP(OPERATION='EXTR',
                  TYPE_CHAM='NOEU_DEPL_R',
                  NOM_CHAM='DEPL',
                  RESULTAT=U2M,
                  INST=1.0
                )
#
TEST_RESU(RESU=(_F(RESULTAT   = U2M,
                   INST       = 1.0,
                   NOM_CHAM   = 'DEPL',
                   GROUP_NO   = 'PPA',
                   NOM_CMP    = 'DX',
                   VALE       = 2.86E-5,
                   PRECISION  = 5.E-2,
                   REFERENCE  = 'AUTRE_ASTER',
                   VERSION    = '7.1.11',
                   ),
                _F(RESULTAT   = U2M,
                   INST       = 1.0,
                   NOM_CHAM   = 'DEPL',
                   GROUP_NO   = 'PPB',
                   NOM_CMP    = 'DX',
                   VALE       = 2.72E-5,
                   PRECISION  = 5.E-2,
                   REFERENCE  = 'AUTRE_ASTER',
                   VERSION    = '7.1.11',
                   ),
                _F(RESULTAT   = U2M,
                   INST       = 1.0,
                   NOM_CHAM   = 'DEPL',
                   GROUP_NO   = 'PPC',
                   NOM_CMP    = 'DX',
                   VALE       = 2.28E-5,
                   PRECISION  = 5.E-2,
                   REFERENCE  = 'AUTRE_ASTER',
                   VERSION    = '7.1.11',
                   ),
                _F(RESULTAT   = U2M,
                   INST       = 1.0,
                   NOM_CHAM   = 'DEPL',
                   GROUP_NO   = 'PPD',
                   NOM_CMP    = 'DX',
                   VALE       = 1.98E-5,
                   PRECISION  = 5.E-2,
                   REFERENCE  = 'AUTRE_ASTER',
                   VERSION    = '7.1.11',
                   ),
                _F(RESULTAT   = U2M,
                   INST       = 1.0,
                   NOM_CHAM   = 'DEPL',
                   GROUP_NO   = 'PPE',
                   NOM_CMP    = 'DX',
                   VALE       = 1.50E-5,
                   PRECISION  = 5.E-2,
                   REFERENCE  = 'AUTRE_ASTER',
                   VERSION    = '7.1.11',
                ))
       )
#
#-----------------------------------------------------------
#
U2L=STAT_NON_LINE(MODELE    = MO,
                  CHAM_MATER = CHMAT,
                  EXCIT      =(_F(CHARGE = CHA1,
                                  FONC_MULT = RAMPE,),
                               ),
                  CONTACT    = CHA2,              
                  COMP_ELAS  = _F(RELATION = 'ELAS',),
                  SOLVEUR    = _F(SYME='OUI',
                                  METHODE = 'LDLT',),
                  INCREMENT  = _F(LIST_INST = L_INST,),
                  CONVERGENCE= _F(ARRET = 'OUI',
                                 ITER_GLOB_MAXI = 200,
                                 RESI_GLOB_RELA = 1.0E-5,),
#                  INFO=2,
               )
#
U2L=CALC_ELEM(reuse=U2L,
              OPTION=('SIEF_ELNO', 'VARI_ELNO_ELGA',),
              RESULTAT=U2L,
             )
#
DEPL2L=CREA_CHAMP(OPERATION='EXTR',
                  TYPE_CHAM='NOEU_DEPL_R',
                  NOM_CHAM='DEPL',
                  RESULTAT=U2L,
                  INST=1.0
                )
#
TEST_RESU(RESU=(_F(RESULTAT   = U2L,
                   INST       = 1.0,
                   NOM_CHAM   = 'DEPL',
                   GROUP_NO   = 'PPA',
                   NOM_CMP    = 'DX',
                   VALE       = 2.86E-5,
                   PRECISION  = 5.E-2,
                   REFERENCE  = 'AUTRE_ASTER',
                   VERSION    = '7.1.11',
                   ),
                _F(RESULTAT   = U2L,
                   INST       = 1.0,
                   NOM_CHAM   = 'DEPL',
                   GROUP_NO   = 'PPB',
                   NOM_CMP    = 'DX',
                   VALE       = 2.72E-5,
                   PRECISION  = 5.E-2,
                   REFERENCE  = 'AUTRE_ASTER',
                   VERSION    = '7.1.11',
                   ),
                _F(RESULTAT   = U2L,
                   INST       = 1.0,
                   NOM_CHAM   = 'DEPL',
                   GROUP_NO   = 'PPC',
                   NOM_CMP    = 'DX',
                   VALE       = 2.28E-5,
                   REFERENCE  = 'AUTRE_ASTER',
                   VERSION    = '7.1.11',
                   PRECISION  = 5.E-2,
                   ),
                _F(RESULTAT   = U2L,
                   INST       = 1.0,
                   NOM_CHAM   = 'DEPL',
                   GROUP_NO   = 'PPD',
                   NOM_CMP    = 'DX',
                   VALE       = 1.98E-5,
                   PRECISION  = 5.E-2,
                   REFERENCE  = 'AUTRE_ASTER',
                   VERSION    = '7.1.11',
                   ),
                _F(RESULTAT   = U2L,
                   INST       = 1.0,
                   NOM_CHAM   = 'DEPL',
                   GROUP_NO   = 'PPE',
                   NOM_CMP    = 'DX',
                   VALE       = 1.50E-5,
                   PRECISION  = 5.E-2,
                   REFERENCE  = 'AUTRE_ASTER',
                   VERSION    = '7.1.11',
                ))
       )
#
#-----------------------------------------------------------
U3M=STAT_NON_LINE(SOLVEUR=_F(SYME='OUI',),
                  MODELE      = MO,
                 CHAM_MATER  = CHMAT,
                 EXCIT       =(_F(CHARGE = CHA1,
                                  FONC_MULT = RAMPE,),
                               ),
                 CONTACT    = CHA3, 
                 COMP_ELAS   = _F(RELATION = 'ELAS',),
                 NEWTON      = _F(REAC_ITER = 1,),
                 INCREMENT   = _F(LIST_INST = L_INST,),
                 CONVERGENCE = _F(ARRET = 'OUI',
                                  ITER_GLOB_MAXI = 200,
                                  RESI_GLOB_RELA = 1.0E-5,),
#                 INFO=2,
               )
#
U3M=CALC_ELEM(reuse=U3M,
            OPTION=('SIEF_ELNO', 'VARI_ELNO_ELGA',),
            RESULTAT=U3M,
           )
#
DEPL3M=CREA_CHAMP(OPERATION='EXTR',
                 TYPE_CHAM='NOEU_DEPL_R',
                 NOM_CHAM='DEPL',
                 RESULTAT=U3M,
                 INST=1.0
                )
#
TEST_RESU(RESU=(_F(RESULTAT   = U3M,
                   INST       = 1.0,
                   NOM_CHAM   = 'DEPL',
                   GROUP_NO   = 'PPA',
                   NOM_CMP    = 'DX',
                   VALE       = 2.86E-5,
                   PRECISION  = 5.E-2,
                   REFERENCE  = 'AUTRE_ASTER',
                   VERSION    = '7.1.11',
                   ),
                _F(RESULTAT   = U3M,
                   INST       = 1.0,
                   NOM_CHAM   = 'DEPL',
                   GROUP_NO   = 'PPB',
                   NOM_CMP    = 'DX',
                   VALE       = 2.72E-5,
                   PRECISION  = 5.E-2,
                   REFERENCE  = 'AUTRE_ASTER',
                   VERSION    = '7.1.11',
                   ),
                _F(RESULTAT   = U3M,
                   INST       = 1.0,
                   NOM_CHAM   = 'DEPL',
                   GROUP_NO   = 'PPC',
                   NOM_CMP    = 'DX',
                   VALE       = 2.28E-5,
                   PRECISION  = 5.E-2,
                   REFERENCE  = 'AUTRE_ASTER',
                   VERSION    = '7.1.11',
                   ),
                _F(RESULTAT   = U3M,
                   INST       = 1.0,
                   NOM_CHAM   = 'DEPL',
                   GROUP_NO   = 'PPD',
                   NOM_CMP    = 'DX',
                   VALE       = 1.98E-5,
                   PRECISION  = 5.E-2,
                   REFERENCE  = 'AUTRE_ASTER',
                   VERSION    = '7.1.11',
                   ),
                _F(RESULTAT   = U3M,
                   INST       = 1.0,
                   NOM_CHAM   = 'DEPL',
                   GROUP_NO   = 'PPE',
                   NOM_CMP    = 'DX',
                   VALE       = 1.50E-5,
                   PRECISION  = 5.E-2,
                   REFERENCE  = 'AUTRE_ASTER',
                   VERSION    = '7.1.11',
                ))
       )
#------------------------------------------------------------
#
U3L=STAT_NON_LINE(MODELE      = MO,
                 CHAM_MATER  = CHMAT,
                 EXCIT       =(_F(CHARGE = CHA1,
                                  FONC_MULT = RAMPE,),
                               ),
                 CONTACT    = CHA3,                                
                 COMP_ELAS   = _F(RELATION = 'ELAS',),
                 SOLVEUR     = _F(SYME='OUI',
                                  METHODE = 'LDLT',),
                 NEWTON      = _F(REAC_ITER = 1,),
                 INCREMENT   = _F(LIST_INST = L_INST,),
                 CONVERGENCE = _F(ARRET = 'OUI',
                                  ITER_GLOB_MAXI = 200,
                                  RESI_GLOB_RELA = 1.0E-5,),
#                 INFO=2,
               )
#
U3L=CALC_ELEM(reuse=U3L,
            OPTION=('SIEF_ELNO', 'VARI_ELNO_ELGA',),
            RESULTAT=U3L,
           )
#
DEPL3L=CREA_CHAMP(OPERATION='EXTR',
                 TYPE_CHAM='NOEU_DEPL_R',
                 NOM_CHAM='DEPL',
                 RESULTAT=U3L,
                 INST=1.0
                )
#
TEST_RESU(RESU=(_F(RESULTAT   = U3L,
                   INST       = 1.0,
                   NOM_CHAM   = 'DEPL',
                   GROUP_NO   = 'PPA',
                   NOM_CMP    = 'DX',
                   VALE       = 2.86E-5,
                   PRECISION  = 5.E-2,
                   REFERENCE  = 'AUTRE_ASTER',
                   VERSION    = '7.1.11',
                   ),
                _F(RESULTAT   = U3L,
                   INST       = 1.0,
                   NOM_CHAM   = 'DEPL',
                   GROUP_NO   = 'PPB',
                   NOM_CMP    = 'DX',
                   VALE       = 2.72E-5,
                   PRECISION  = 5.E-2,
                   REFERENCE  = 'AUTRE_ASTER',
                   VERSION    = '7.1.11',
                   ),
                _F(RESULTAT   = U3L,
                   INST       = 1.0,
                   NOM_CHAM   = 'DEPL',
                   GROUP_NO   = 'PPC',
                   NOM_CMP    = 'DX',
                   VALE       = 2.28E-5,
                   PRECISION  = 5.E-2,
                   REFERENCE  = 'AUTRE_ASTER',
                   VERSION    = '7.1.11',
                   ),
                _F(RESULTAT   = U3L,
                   INST       = 1.0,
                   NOM_CHAM   = 'DEPL',
                   GROUP_NO   = 'PPD',
                   NOM_CMP    = 'DX',
                   VALE       = 1.98E-5,
                   PRECISION  = 5.E-2,
                   REFERENCE  = 'AUTRE_ASTER',
                   VERSION    = '7.1.11',
                   ),
                _F(RESULTAT   = U3L,
                   INST       = 1.0,
                   NOM_CHAM   = 'DEPL',
                   GROUP_NO   = 'PPE',
                   NOM_CMP    = 'DX',
                   VALE       = 1.50E-5,
                   PRECISION  = 5.E-2,
                   REFERENCE  = 'AUTRE_ASTER',
                   VERSION    = '7.1.11',
                ))
       )
#
#
FIN()
#
