# TITRE BARREAU FISSURE AVEC X-FEM
# ======================================================================
# COPYRIGHT (C) 1991 - 2012  EDF R&D                  WWW.CODE-ASTER.ORG
# THIS PROGRAM IS FREE SOFTWARE; YOU CAN REDISTRIBUTE IT AND/OR MODIFY  
# IT UNDER THE TERMS OF THE GNU GENERAL PUBLIC LICENSE AS PUBLISHED BY  
# THE FREE SOFTWARE FOUNDATION; EITHER VERSION 2 OF THE LICENSE, OR     
# (AT YOUR OPTION) ANY LATER VERSION.                                                    
#                                                                       
# THIS PROGRAM IS DISTRIBUTED IN THE HOPE THAT IT WILL BE USEFUL, BUT   
# WITHOUT ANY WARRANTY; WITHOUT EVEN THE IMPLIED WARRANTY OF            
# MERCHANTABILITY OR FITNESS FOR A PARTICULAR PURPOSE. SEE THE GNU      
# GENERAL PUBLIC LICENSE FOR MORE DETAILS.                              
#                                                                       
# YOU SHOULD HAVE RECEIVED A COPY OF THE GNU GENERAL PUBLIC LICENSE     
# ALONG WITH THIS PROGRAM; IF NOT, WRITE TO EDF R&D CODE_ASTER,         
#    1 AVENUE DU GENERAL DE GAULLE, 92141 CLAMART CEDEX, FRANCE.        
# ======================================================================

DEBUT(CODE=_F(NOM='SSNV195A',NIV_PUB_WEB='INTERNET'),DEBUG=_F(SDVERI='OUI'));

MAILLAGE=LIRE_MAILLAGE(FORMAT='MED',INFO=1);

MAILLAGE=DEFI_GROUP(reuse = MAILLAGE,
                  MAILLAGE = MAILLAGE,
            CREA_GROUP_NO =(
                             _F(
                                NOM = 'H',
                                OPTION = 'ENV_SPHERE',
                                POINT  = (0.0,0.0,50.0),
                                RAYON = 1E-3,
                                PRECISION = 2E-3,
                                ),
                             _F(
                                NOM = 'B',
                                OPTION = 'ENV_SPHERE',
                                POINT  = (0.0,0.0,0.0),
                                RAYON = 1E-3,
                                PRECISION = 2E-3,
                                ),
                             _F(
                                NOM = 'M',
                                OPTION = 'ENV_SPHERE',
                                POINT  = (0.0,0.0,25.0),
                                RAYON = 1E-3,
                                PRECISION = 2E-3,
                                ),   
                            )    
           );


MAILLAGE=DEFI_GROUP(reuse = MAILLAGE,
                  MAILLAGE = MAILLAGE,
            CREA_GROUP_NO =(
                             _F(
                                NOM = 'face_hau',
                                OPTION = 'PLAN',
                                GROUP_NO_CENTRE  = 'H',
                                VECT_NORMALE = (0.0,0.0,1.0),
                                PRECISION = 1E-3,
                                ),
                             _F(
                                NOM = 'face_mil',
                                OPTION = 'PLAN',
                                GROUP_NO_CENTRE  = 'M',
                                VECT_NORMALE = (0.0,0.0,1.0),
                                PRECISION = 1E-3,
                                ),
                             _F(
                                NOM = 'face_bas',
                                OPTION = 'PLAN',
                                GROUP_NO_CENTRE  = 'B',
                                VECT_NORMALE = (0.0,0.0,1.0),
                                PRECISION = 1E-3,
                                ),
#                              _F(GROUP_MA='VOL'),                            
                            )    
           );

MAILLAGE=DEFI_GROUP(reuse =MAILLAGE,
                    MAILLAGE=MAILLAGE,
                    CREA_GROUP_NO=_F(GROUP_MA='VOL'),   
                    );
                       
MODELEIN=AFFE_MODELE(MAILLAGE=MAILLAGE,
                   AFFE=_F(GROUP_MA=('VOL'),
                            PHENOMENE='MECANIQUE',
                            MODELISATION='3D'),
                     );        


LN1=FORMULE(NOM_PARA=('X','Y','Z'),VALE='Z-12.5');
                     
LN2=FORMULE(NOM_PARA=('X','Y','Z'),VALE='Z-37.5');
     

FISS1=DEFI_FISS_XFEM(MODELE=MODELEIN,  
                    TYPE_DISCONTINUITE='INTERFACE',
                    DEFI_FISS=_F(FONC_LN=LN1));

                    
FISS2=DEFI_FISS_XFEM(MODELE=MODELEIN,  
                    TYPE_DISCONTINUITE='INTERFACE',
                    DEFI_FISS=_F(FONC_LN=LN2));
                    

                                                                
MODELEK=MODI_MODELE_XFEM(MODELE_IN=MODELEIN,
                         FISSURE=(FISS1,FISS2),
                         INFO=2,
                        );


E=205000.0E6
nu=0.3
ACIER=DEFI_MATERIAU(ELAS=_F(E=E,
                            NU=nu,
                            RHO=7800.0));

CHAMPMAT=AFFE_MATERIAU(MAILLAGE=MAILLAGE,
                       MODELE=MODELEK,
                       AFFE=(_F(GROUP_MA=('VOL'),
                                MATER=ACIER,
                                ),
                             ));
ZERO=0.0
DEPX=1.E-3
DEPY=2.E-3
DEPZ=3.E-3

CH1=AFFE_CHAR_MECA(MODELE=MODELEK,
                       DDL_IMPO=(
                                 _F(GROUP_NO='face_mil',
                                    DX=ZERO,
                                    DY=ZERO,
                                    DZ=ZERO,
                                    ),
                                 _F(GROUP_NO='face_hau',
                                    DX=ZERO,
                                    DY=ZERO,   
                                    DZ=DEPZ),
                                 _F(GROUP_NO='face_bas',
                                    DX=ZERO,
                                    DY=ZERO,
                                    DZ=-DEPZ,
                                    ),
                                 ),
                       INFO=1);

        

UTOT1=MECA_STATIQUE(MODELE=MODELEK,
                   CHAM_MATER=CHAMPMAT,              
                   EXCIT=(_F(CHARGE=CH1), 
                          ),
                   SOLVEUR=_F(METHODE='MUMPS',
   
                             ),
                   INFO=1);


# -------------------------------------------------------------   
#            POST-TRAITEMENT POUR LA VISUALISATION X-FEM   
# -------------------------------------------------------------   

MA_XFEM=POST_MAIL_XFEM(
                       MODELE        = MODELEK,
                       INFO          = 2)

MOD_VISU=AFFE_MODELE(MAILLAGE=MA_XFEM,
                     AFFE=_F(TOUT='OUI',
                              PHENOMENE='MECANIQUE',
                              MODELISATION='3D')) 

RES_XFEM=POST_CHAM_XFEM(MODELE_VISU   = MOD_VISU,
                        RESULTAT      = UTOT1,
                        
                        INFO          = 2)
 
#IMPR_RESU(FORMAT='GMSH',UNITE=81,RESU=_F(RESULTAT=RES_XFEM));

# -------------------------------------------------------------   
#            TEST_TABLE
# -------------------------------------------------------------   


DEP=POST_RELEVE_T(ACTION=_F(INTITULE='DEPLE',
                                GROUP_NO=('NFISSU'),
                                RESULTAT=RES_XFEM,
                                NOM_CHAM='DEPL',
                                NUME_ORDRE=1,
                                TOUT_CMP='OUI',
                                OPERATION='EXTRACTION'));

IMPR_TABLE(TABLE=DEP,
           FORMAT='AGRAF',
           FORMAT_R='1PE12.5',
           IMPR_FONCTION='NON');

# POUR LES DEUX FISSURES

TEST_TABLE(CRITERE='ABSOLU',
           REFERENCE='ANALYTIQUE',
           PRECISION=1.0000000000000001E-15,
           VALE_CALC=-4.259861895564860E-17,
           VALE_REFE=0.0,
           NOM_PARA='DX',
           TYPE_TEST='MIN',
           TABLE=DEP,)

TEST_TABLE(CRITERE='ABSOLU',
           REFERENCE='ANALYTIQUE',
           PRECISION=1.0000000000000001E-15,
           VALE_CALC= 2.646100464343140E-17,
           VALE_REFE=0.0,
           NOM_PARA='DX',
           TYPE_TEST='MAX',
           TABLE=DEP,)

TEST_TABLE(CRITERE='ABSOLU',
           REFERENCE='ANALYTIQUE',
           PRECISION=1.0000000000000001E-15,
           VALE_CALC=-7.190587543644118E-17,
           VALE_REFE=0.0,
           NOM_PARA='DY',
           TYPE_TEST='MIN',
           TABLE=DEP,)

TEST_TABLE(CRITERE='ABSOLU',
           REFERENCE='ANALYTIQUE',
           PRECISION=1.0000000000000001E-15,
           VALE_CALC= 3.961010459481504E-17,
           VALE_REFE=0.0,
           NOM_PARA='DY',
           TYPE_TEST='MAX',
           TABLE=DEP,)

# POUR LA PREMIERE FISSURE

DEP1P = CALC_TABLE(TABLE = DEP,
                  ACTION = (_F(OPERATION = 'FILTRE',
                               NOM_PARA  = 'NOEUD',
                               CRIT_COMP = 'REGEXP',
                               VALE_K    = 'N[^P]'),
                            _F(OPERATION = 'FILTRE',
                               NOM_PARA  = 'COOR_Z',
                               CRIT_COMP = 'LT',
                               VALE      = 25)));

TEST_TABLE(CRITERE='RELATIF',
           REFERENCE='ANALYTIQUE',
           PRECISION=9.9999999999999994E-12,
           VALE_CALC=-3.00000000000E-03,
           VALE_REFE=-3.0000000000000001E-3,
           NOM_PARA='DZ',
           TYPE_TEST='MIN',
           TABLE=DEP1P,)

TEST_TABLE(CRITERE='RELATIF',
           REFERENCE='ANALYTIQUE',
           PRECISION=9.9999999999999994E-12,
           VALE_CALC=-3.00000000000E-03,
           VALE_REFE=-3.0000000000000001E-3,
           NOM_PARA='DZ',
           TYPE_TEST='MAX',
           TABLE=DEP1P,)

DEP1M = CALC_TABLE(TABLE = DEP,
                  ACTION = (_F(OPERATION = 'FILTRE',
                               NOM_PARA  = 'NOEUD',
                               CRIT_COMP = 'REGEXP',
                               VALE_K    = 'N[^M]'),
                            _F(OPERATION = 'FILTRE',
                               NOM_PARA  = 'COOR_Z',
                               CRIT_COMP = 'LT',
                               VALE      = 25)));

TEST_TABLE(CRITERE='ABSOLU',
           REFERENCE='ANALYTIQUE',
           PRECISION=1.0000000000000001E-15,
           VALE_CALC=-3.903127820947816E-18,
           VALE_REFE=0.0,
           NOM_PARA='DZ',
           TYPE_TEST='MIN',
           TABLE=DEP1M,)

TEST_TABLE(CRITERE='ABSOLU',
           REFERENCE='ANALYTIQUE',
           PRECISION=1.0000000000000001E-15,
           VALE_CALC= 3.903127820947816E-18,
           VALE_REFE=0.0,
           NOM_PARA='DZ',
           TYPE_TEST='MAX',
           TABLE=DEP1M,)

# POUR LA DEUXIEME FISSURE

DEP2P = CALC_TABLE(TABLE = DEP,
                  ACTION = (_F(OPERATION = 'FILTRE',
                               NOM_PARA  = 'NOEUD',
                               CRIT_COMP = 'REGEXP',
                               VALE_K    = 'N[^P]'),
                            _F(OPERATION = 'FILTRE',
                               NOM_PARA  = 'COOR_Z',
                               CRIT_COMP = 'GT',
                               VALE      = 25)));

TEST_TABLE(CRITERE='ABSOLU',
           REFERENCE='ANALYTIQUE',
           PRECISION=1.0000000000000001E-15,
           VALE_CALC=-6.179952383167375E-18,
           VALE_REFE=0.0,
           NOM_PARA='DZ',
           TYPE_TEST='MIN',
           TABLE=DEP2P,)

TEST_TABLE(CRITERE='ABSOLU',
           REFERENCE='ANALYTIQUE',
           PRECISION=1.0000000000000001E-15,
           VALE_CALC= 5.963111948670274E-18,
           VALE_REFE=0.0,
           NOM_PARA='DZ',
           TYPE_TEST='MAX',
           TABLE=DEP2P,)

DEP2M = CALC_TABLE(TABLE = DEP,
                  ACTION = (_F(OPERATION = 'FILTRE',
                               NOM_PARA  = 'NOEUD',
                               CRIT_COMP = 'REGEXP',
                               VALE_K    = 'N[^M]'),
                            _F(OPERATION = 'FILTRE',
                               NOM_PARA  = 'COOR_Z',
                               CRIT_COMP = 'GT',
                               VALE      = 25)));

TEST_TABLE(CRITERE='RELATIF',
           REFERENCE='ANALYTIQUE',
           PRECISION=9.9999999999999994E-12,
           VALE_CALC= 3.00000000000E-03,
           VALE_REFE=3.0000000000000001E-3,
           NOM_PARA='DZ',
           TYPE_TEST='MIN',
           TABLE=DEP2M,)

TEST_TABLE(CRITERE='RELATIF',
           REFERENCE='ANALYTIQUE',
           PRECISION=9.9999999999999994E-12,
           VALE_CALC= 3.00000000000E-03,
           VALE_REFE=3.0000000000000001E-3,
           NOM_PARA='DZ',
           TYPE_TEST='MAX',
           TABLE=DEP2M,)

FIN();
