# TITRE GRANDES ROTATIONS AVEC X-FEM
# ======================================================================
# COPYRIGHT (C) 1991 - 2012  EDF R&D                  WWW.CODE-ASTER.ORG
# THIS PROGRAM IS FREE SOFTWARE; YOU CAN REDISTRIBUTE IT AND/OR MODIFY  
# IT UNDER THE TERMS OF THE GNU GENERAL PUBLIC LICENSE AS PUBLISHED BY  
# THE FREE SOFTWARE FOUNDATION; EITHER VERSION 2 OF THE LICENSE, OR     
# (AT YOUR OPTION) ANY LATER VERSION.                                                    
#                                                                       
# THIS PROGRAM IS DISTRIBUTED IN THE HOPE THAT IT WILL BE USEFUL, BUT   
# WITHOUT ANY WARRANTY; WITHOUT EVEN THE IMPLIED WARRANTY OF            
# MERCHANTABILITY OR FITNESS FOR A PARTICULAR PURPOSE. SEE THE GNU      
# GENERAL PUBLIC LICENSE FOR MORE DETAILS.                              
#                                                                       
# YOU SHOULD HAVE RECEIVED A COPY OF THE GNU GENERAL PUBLIC LICENSE     
# ALONG WITH THIS PROGRAM; IF NOT, WRITE TO EDF R&D CODE_ASTER,         
#    1 AVENUE DU GENERAL DE GAULLE, 92141 CLAMART CEDEX, FRANCE.        
# ======================================================================
#
# GRANDES ROTATIONS AVEC XFEM
# QUADRANGLES, DEFORMATIONS PLANES
#

DEBUT(CODE=_F(NOM='SSNV507A',NIV_PUB_WEB='INTERNET'),DEBUG=_F(SDVERI='OUI'));

MAILLAG=LIRE_MAILLAGE(FORMAT='MED',INFO=1);

R = 8;

MAILLAG=DEFI_GROUP(reuse =MAILLAG,
                    MAILLAGE=MAILLAG,
                    CREA_GROUP_NO=(_F(NOM='INTER',
                                      OPTION ='ENV_SPHERE',
                                      POINT  = (0.0,0.0),
                                      RAYON = 1,
                                      PRECISION = 2.0)));

MODELEIN=AFFE_MODELE(MAILLAGE=MAILLAG,
                     AFFE=(_F(GROUP_MA=('SURF'),
                              PHENOMENE='MECANIQUE',
                              MODELISATION='D_PLAN')));

LN1=FORMULE(NOM_PARA=('X','Y'),VALE='-X*X-Y*Y+R*R');

FISS1=DEFI_FISS_XFEM(MODELE=MODELEIN,
                    TYPE_DISCONTINUITE='INTERFACE',
                    DEFI_FISS=_F(FONC_LN=LN1),
                    INFO=1);

MODELEK=MODI_MODELE_XFEM(MODELE_IN=MODELEIN,
                         FISSURE=(FISS1),
                         CONTACT='SANS',
                         INFO=1);

E=100.0E6
nu=0.3
ACIER=DEFI_MATERIAU(ELAS=_F(E=E,
                            NU=nu,
                            RHO=7800.0));

CHAMPMAT=AFFE_MATERIAU(MAILLAGE=MAILLAG,
                       MODELE=MODELEK,
                       AFFE=_F(TOUT=('OUI'),
                                MATER=ACIER,
                                ));

DTH=-2*pi

VAR1=DEFI_FONCTION(NOM_PARA='INST',
                    VALE=(0.,0.,1.,1.));

CH1=AFFE_CHAR_MECA(MODELE=MODELEK,
                   DDL_IMPO=(_F(GROUP_MA=('LB','LH','LD','LG'),DX=0,DY=0)),
                   INFO=1);

tournex = FORMULE(NOM_PARA=('X','Y','INST'),
          VALE='sqrt(X*X+Y*Y)*cos(atan2(Y,X)+DTH*INST)-X');

tourney = FORMULE(NOM_PARA=('X','Y','INST'),
          VALE='sqrt(X*X+Y*Y)*sin(atan2(Y,X)+DTH*INST)-Y');

ROT=AFFE_CHAR_MECA_F(MODELE=MODELEK,
                    DDL_IMPO=(_F(GROUP_NO='INTER',
                                 DX=tournex,DY=tourney)));


L_INST=DEFI_LIST_REEL(DEBUT=0.0,
                      INTERVALLE=_F(JUSQU_A=1,
                                    NOMBRE=4));

UTOT1=STAT_NON_LINE(MODELE=MODELEK,
                   CHAM_MATER=CHAMPMAT,
                   EXCIT=(
                          _F(CHARGE=CH1),
                          _F(CHARGE=ROT)),
                   COMP_INCR=(_F(RELATION='ELAS',
                                 DEFORMATION='GROT_GDEP')),
                   NEWTON=_F(REAC_INCR=1,REAC_ITER=1),
                   INCREMENT=_F(LIST_INST=L_INST),
                   CONVERGENCE=(_F(ITER_GLOB_MAXI=20,
                                  RESI_GLOB_MAXI=1E-6)),
                   SOLVEUR=_F(METHODE='MUMPS',
   ),
                   ARCHIVAGE=_F(CHAM_EXCLU='VARI_ELGA'),
                   INFO=1);

#-----------------------------------------------------------
#             POST-TRAITEMENT POUR LA VISUALISATION
#-----------------------------------------------------------

MA_XFEM=POST_MAIL_XFEM(
                                                MODELE=MODELEK);

RINF = R - 1;
MA_XFEM=DEFI_GROUP(reuse =MA_XFEM,
                                        MAILLAGE=MA_XFEM,
                                        CREA_GROUP_NO=(_F(NOM='N_INT',
                                                                              OPTION ='ENV_SPHERE',
                                                                              POINT  = (0.0,0.0),
                                                                              RAYON = 1,
                                                                              PRECISION = RINF)));

MOD_VISU=AFFE_MODELE(MAILLAGE=MA_XFEM,
                                            AFFE=_F(TOUT='OUI',
                                                            PHENOMENE='MECANIQUE',
                                                            MODELISATION='D_PLAN',
                ))

RES_XFEM=POST_CHAM_XFEM(
                                                    
                                                    MODELE_VISU  = MOD_VISU,
                                                    RESULTAT        = UTOT1,
                                                    )

#----------------------------------------------
#                   POST RELEVE
#----------------------------------------------

DEP=[None]*5
inst=[0.0,0.25,0.5,0.75,1.0]
distance = FORMULE(NOM_PARA=('DX','DY','DX_C','DY_C'),
                   VALE='sqrt((DX-DX_C)**2+(DY-DY_C)**2)');

for i in [1,2,3,4]: #Boucle sur les increments
  DEP[i]=POST_RELEVE_T(ACTION=_F(INTITULE='DEPLE',
                                 GROUP_NO=('N_INT'),
                                 RESULTAT=RES_XFEM,
                                 NOM_CHAM='DEPL',
                                 INST=inst[i],
                                 TOUT_CMP='OUI',
                                 OPERATION='EXTRACTION'));

  DEP[i]=CALC_TABLE(reuse = DEP[i],
                    TABLE = DEP[i],
                    ACTION = (_F(OPERATION = 'RENOMME',
                                 NOM_PARA  = ('COOR_X','X')),
                              _F(OPERATION = 'RENOMME',
                                 NOM_PARA  = ('COOR_Y','Y')),
                              _F(OPERATION = 'OPER',
                                 NOM_PARA  = 'DX_C',
                                 FORMULE = tournex),
                              _F(OPERATION = 'OPER',
                                 NOM_PARA  = 'DY_C',
                                 FORMULE = tourney),
                              _F(OPERATION = 'OPER',
                                 NOM_PARA  = 'DIST',
                                 FORMULE = distance),
                              _F(OPERATION = 'EXTR',
                                 NOM_PARA=('NOEUD','INST','DIST')),
                              _F(OPERATION = 'FILTRE',
                                 NOM_PARA  = 'NOEUD',
                                 CRIT_COMP = 'REGEXP',
                                 VALE_K    = 'N[^M]')));

  IMPR_TABLE(TABLE=DEP[i]);

  TEST_TABLE(CRITERE='ABSOLU',
             REFERENCE='ANALYTIQUE',
             PRECISION=1.E-10,
             VALE_CALC=0.0,
             VALE_REFE=0.0,
             NOM_PARA='DIST',
             TYPE_TEST='SOMM',
             TABLE=DEP[i],)

FIN();                  
