
# MODIF  DATE 09/07/2012   AUTEUR PROIX J-M.PROIX 
# TITRE COMPORTEMENTS ELASTOVISCOPLASTIQUES MONOCRISTALLINS
# RESPONSABLE JMBHH01 J.M.PROIX
# ssnv172a.para = tps_job 300 mem_job 269Mo ncpus 1 liste_test R
#            CONFIGURATION MANAGEMENT OF EDF VERSION
# ======================================================================
# COPYRIGHT (C) 1991 - 2012  EDF R&D                  WWW.CODE-ASTER.ORG
# THIS PROGRAM IS FREE SOFTWARE; YOU CAN REDISTRIBUTE IT AND/OR MODIFY
# IT UNDER THE TERMS OF THE GNU GENERAL PUBLIC LICENSE AS PUBLISHED BY
# THE FREE SOFTWARE FOUNDATION; EITHER VERSION 2 OF THE LICENSE, OR
# (AT YOUR OPTION) ANY LATER VERSION.
#
# THIS PROGRAM IS DISTRIBUTED IN THE HOPE THAT IT WILL BE USEFUL, BUT
# WITHOUT ANY WARRANTY; WITHOUT EVEN THE IMPLIED WARRANTY OF
# MERCHANTABILITY OR FITNESS FOR A PARTICULAR PURPOSE. SEE THE GNU
# GENERAL PUBLIC LICENSE FOR MORE DETAILS.
#
# YOU SHOULD HAVE RECEIVED A COPY OF THE GNU GENERAL PUBLIC LICENSE
# ALONG WITH THIS PROGRAM; IF NOT, WRITE TO EDF R&D CODE_ASTER,
#    1 AVENUE DU GENERAL DE GAULLE, 92141 CLAMART CEDEX, FRANCE.
# ======================================================================

DEBUT(CODE=_F(NOM='SSNV172A',
              NIV_PUB_WEB='INTERNET',),);

CUBE=LIRE_MAILLAGE();


TROISD=AFFE_MODELE(MAILLAGE=CUBE,
                   AFFE=_F(TOUT='OUI',
                           PHENOMENE='MECANIQUE',
                           MODELISATION='3D',),);
TFIN = 0.955;
TFIN2 = 10.;
TFIN3=2.

NPAS = 20;

NPASC = 100;


LINSTC=DEFI_LIST_REEL(DEBUT=0.0,
                      INTERVALLE=(_F(JUSQU_A=0.755,
                                     NOMBRE=1,),
                                  _F(JUSQU_A=TFIN,
                                     NOMBRE=NPASC,),),);

LINST=DEFI_LIST_REEL(DEBUT=0.0,
                     INTERVALLE=(_F(JUSQU_A=0.755,
                                    NOMBRE=1,),
                                 _F(JUSQU_A=TFIN,
                                    NOMBRE=NPAS,),),);

LINST3=DEFI_LIST_REEL(DEBUT=0.0,
                     INTERVALLE=(_F(JUSQU_A=0.52,
                                    NOMBRE=1,),
                                 _F(JUSQU_A=TFIN3,
                                    NOMBRE=NPAS,),),);

LINST3C=DEFI_LIST_REEL(DEBUT=0.0,
                     INTERVALLE=(_F(JUSQU_A=0.52,
                                    NOMBRE=1,),
                                 _F(JUSQU_A=TFIN3,
                                    NOMBRE=NPASC,),),);

COEF=DEFI_FONCTION(NOM_PARA='INST',
                   VALE=(0.0,0.0,1.0,1.0,),
                   PROL_DROITE='LINEAIRE',
                   PROL_GAUCHE='LINEAIRE',);


TRAC=AFFE_CHAR_MECA(MODELE=TROISD,
                    DDL_IMPO=(_F(NOEUD='NO4',
                                 DX=0.0,
                                 DY=0.0,),
                              _F(NOEUD='NO8',
                                 DX=0.0,
                                 DY=0.0,
                                 DZ=0.0,),
                              _F(NOEUD='NO2',
                                 DX=0.0,),
                              _F(NOEUD='NO6',
                                 DX=0.0,),),
                    FORCE_NODALE=(_F(NOEUD=('NO3','NO7',),
                                     FX=25.0,),
                                  _F(NOEUD=('NO1','NO5',),
                                     FX=25.0,),),);

TRAC3=AFFE_CHAR_MECA(MODELE=TROISD,
                    DDL_IMPO=(_F(NOEUD='NO4',
                                 DX=0.0,
                                 DY=0.0,),
                              _F(NOEUD='NO8',
                                 DX=0.0,
                                 DY=0.0,
                                 DZ=0.0,),
                              _F(NOEUD='NO2',
                                 DX=0.0,),
                              _F(NOEUD='NO6',
                                 DX=0.0,),
                              _F(NOEUD=('NO3','NO7',),
                                 DX=0.001,),
                              _F(NOEUD=('NO1','NO5',),
                                 DX=0.001,),
                                 ),);

# en Joules / Kelvin

KJ=1.38E-23

# en eV / Kelvin

KeV=KJ/1.6E-19

#print 'K en eV=',KeV

# MATERIAU DE TYPE CHABOCHE, SOIT MACRO, SOIT MONOCRISTAL
ACIER=DEFI_MATERIAU(ELAS=_F(E=145200.0,
                            NU=0.0,
                            ALPHA=0.),
                    CIN1_CHAB=_F(R_0=75.5,
                                 R_I=85.27,
                                 B=19.34,
                                 C_I=10.0,
                                 K=1.0,
                                 W=0.0,
                                 G_0=36.68,
                                 A_I=1.0,),
                    LEMAITRE=_F(N=10.0,
                                UN_SUR_K=0.025,
                                UN_SUR_M=0.0,),
                    MONO_VISC1=_F(N=10.0,
                                  K=40.0,
                                  C=10.0,),
                    MONO_VISC2=_F(N=10.0,
                                  K=40.0,
                                  C=10.0,
                                  D=0.0,
                                  A=0.0,),
                    MONO_ISOT1=_F(R_0=75.5,
                                  Q=9.77,
                                  B=19.34,
                                  H=0.0,),
                    MONO_ISOT2=_F(R_0=75.5,
                                  Q1=9.77,
                                  B1=19.34,
                                  H=0.0,
                                  Q2=0.0,
                                  B2=0.0,),
                    MONO_CINE1=_F(D=36.68,),
                    MONO_CINE2=_F(D=36.68,
                                  GM=0.0,
                                  PM=0.0,
                                  C=0.0,),);

# TEST INFORMATIQUE DU MATERIAU ORTHOTROPE
# IDENTIQUE EN FAIT AU PRECEDENT

ACIERORT=DEFI_MATERIAU(
                 ELAS_ORTH=_F(  E_L = 145200.0,
                                E_T = 145200.0,
                                E_N = 145200.0,
                                NU_LT = 0.,
                                NU_LN = 0.,
                                NU_TN = 0.,
                                G_LT = 72600.,
                                G_LN = 72600.,
                                G_TN = 72600.,
                                RHO = 7800.,
                                ALPHA_L = 0.,
                                ALPHA_N = 0.,
                                 ALPHA_T = 0.),

                    MONO_VISC1=_F(N=10.0,
                                  K=40.0,
                                  C=10.0,),

                    MONO_ISOT1=_F(R_0=75.5,
                                  Q=9.77,
                                  B=19.34,
                                  H=0.0,),

                    MONO_CINE1=_F(D=36.68,),

                                  );


# MATERIAU DEFINI POUR LE COMPORTEMENT  DD_KR

ACIERKR=DEFI_MATERIAU(ELAS=_F(E=275200.,
                            NU=0.3,
                            ALPHA=0.),
                   MONO_DD_KR=_F(K      = 8.62E-5,
                                  TAUR   = 498.,
                                  TAU0   = 132.,
                                  GAMMA0 = 1.E6,
                                  DELTAG0= 0.768,
                                  BSD    = 2.514E-5,
                                  GCB    = 31.822,
                                  KDCS   = 22.9,
                                  P      = 0.335,
                                  Q      = 1.12,
                                   H1      = 0.25,
                                   H2      = 0.25,
                                   H3      = 0.25,
                                   H4      = 0.25,
                                  ),
                    );

ACIERT2=DEFI_MATERIAU(ELAS=_F(E=145200.0,
                            NU=0.0,
                            ALPHA=0.),
                    MONO_VISC2=_F(N=10.0,
                                  K=40.0,
                                  C=10.0,
                                  D=0.1,
                                  A=0.5,),
                    MONO_ISOT2=_F(R_0=75.5,
                                  Q1=9.77,
                                  B1=19.34,
                                  H=0.0,
                                  Q2=10.0,
                                  B2=10.0,),
                    MONO_CINE2=_F(D=36.68,
                                  GM=10.0,
                                  PM=0.10,
                                  C=10.0,),);


TEMP=273.5



TEMPE=CREA_CHAMP(OPERATION='AFFE', TYPE_CHAM='NOEU_TEMP_R',
               MAILLAGE=CUBE,
                   AFFE=_F(
               TOUT = 'OUI',
               NOM_CMP = 'TEMP',
               VALE= 0.)
             )


MAT=AFFE_MATERIAU(MAILLAGE=CUBE,
                        AFFE_VARC=(_F(TOUT='OUI',
                                     CHAMP_GD=TEMPE,
                                     NOM_VARC='TEMP',
                                     VALE_REF=0),),
                  AFFE=_F(TOUT='OUI',
                          MATER=ACIER,),);


MATKR=AFFE_MATERIAU(MAILLAGE=CUBE,
                        AFFE_VARC=(_F(TOUT='OUI',
                                     CHAMP_GD=TEMPE,
                                     NOM_VARC='TEMP',
                                     VALE_REF=0),),
                  AFFE=_F(TOUT='OUI',
                          MATER=ACIERKR,),);


MATORTH=AFFE_MATERIAU(MAILLAGE=CUBE,
                  AFFE=_F(TOUT='OUI',
                          MATER=ACIERORT,),);


MATT2=AFFE_MATERIAU(MAILLAGE=CUBE,
                  AFFE=_F(TOUT='OUI',MATER=ACIERT2,),);



COMPOR1=DEFI_COMPOR(MONOCRISTAL=(_F(MATER=ACIER,
                                    ECOULEMENT='MONO_VISC1',
                                    ECRO_ISOT='MONO_ISOT1',
                                    ECRO_CINE='MONO_CINE1',
                                    ELAS='ELAS',
                                    FAMI_SYST_GLIS='UNIAXIAL',),),);

COMPOR2=DEFI_COMPOR(MONOCRISTAL=(_F(MATER=ACIER,
                                    ECOULEMENT='MONO_VISC2',
                                    ECRO_ISOT='MONO_ISOT2',
                                    ECRO_CINE='MONO_CINE2',
                                    ELAS='ELAS',
                                    FAMI_SYST_GLIS='UNIAXIAL',),),);


COMPT2=DEFI_COMPOR(MONOCRISTAL=(_F(MATER=ACIERT2,
                                    ECOULEMENT='MONO_VISC2',
                                    ECRO_ISOT='MONO_ISOT2',
                                    ECRO_CINE='MONO_CINE2',
                                    ELAS='ELAS',
                                    FAMI_SYST_GLIS='UNIAXIAL',),),);

# ORTHOTROPIE
COMPORTH=DEFI_COMPOR(MONOCRISTAL=(_F(MATER=ACIERORT,
                                    ECOULEMENT='MONO_VISC1',
                                    ECRO_ISOT='MONO_ISOT1',
                                    ECRO_CINE='MONO_CINE1',
                                    ELAS='ELAS_ORTH',
                                    FAMI_SYST_GLIS='UNIAXIAL',),),);


# ORIENTATION QUELCONQUE (PAS DE VALEUR DE REFERENCE)
ORIEN=AFFE_CARA_ELEM(MODELE=TROISD,
                     MASSIF=_F(GROUP_MA='TOUT',
                               ANGL_REP=(30.0,0.0,0.0,),),);



COMPORKR=DEFI_COMPOR(MONOCRISTAL=(_F(MATER=ACIERKR,
                                    ECOULEMENT='MONO_DD_KR',
                                    ELAS='ELAS',
                                    FAMI_SYST_GLIS='BCC24',),),);

COMPORP=DEFI_COMPOR(POLYCRISTAL=(
                        _F(MONOCRISTAL=COMPORKR,FRAC_VOL=1,ANGL_EULER=(0.,0.,0.),),
                        ),
                    LOCALISATION='BETA',DL=0.,DA=0.,
                    );

ORIENKR=AFFE_CARA_ELEM(MODELE=TROISD,
                     MASSIF=_F(GROUP_MA='TOUT',
                               ANGL_EULER=(163.03, 47.67, 335.63),),);





# SOLUTION DE REFERENCE
# ATTENTION TRES SENSIBLE AU PAS DE TEMPS.

SOLCHAB=STAT_NON_LINE(MODELE=TROISD,
                      CHAM_MATER=MAT,
                      EXCIT=(_F(CHARGE=TRAC,
                                FONC_MULT=COEF,
                                TYPE_CHARGE='FIXE_CSTE',),),
                      COMP_INCR=(_F(RELATION='VISC_CIN1_CHAB',
                                    DEFORMATION='PETIT',
                                    ITER_INTE_MAXI=100,
                                    TOUT='OUI',),),
                      INCREMENT=(_F(LIST_INST=LINSTC,),),
                      NEWTON=(_F(REAC_ITER=1,),),
                      ARCHIVAGE=_F(LIST_INST=LINST,),);

SOLCHAB=CALC_CHAMP(reuse=SOLCHAB,RESULTAT=SOLCHAB,DEFORMATION=('EPSI_ELGA','EPSP_ELGA'))


TEST_RESU(RESU=(_F(RESULTAT=SOLCHAB,
                   INST=TFIN,
                   NOM_CHAM='SIEF_ELGA',
                   NOM_CMP='SIXX',
                   MAILLE='MA1',
                   POINT=1,
                   VALE=-95.5,
                   REFERENCE='ANALYTIQUE',),
                _F(RESULTAT=SOLCHAB,
                   INST=TFIN,
                   NOM_CHAM='EPSI_ELGA',
                   NOM_CMP='EPXX',
                   MAILLE='MA1',
                   POINT=1,
                   VALE=-0.0006764427,
                   REFERENCE='NON_REGRESSION',),
                _F(RESULTAT=SOLCHAB,
                   INST=TFIN,
                   NOM_CHAM='EPSP_ELGA',
                   NOM_CMP='EPXX',
                   MAILLE='MA1',
                   POINT=1,
                   VALE=-1.8729214778e-05,
                   REFERENCE='NON_REGRESSION',),),);



# IMPLICITE : TEST DE MONO_VISC1, MONO_LINE1, MONO_CIN1

IMPL1=STAT_NON_LINE(MODELE=TROISD,INFO=1,
                     CHAM_MATER=MAT,
                     EXCIT=(_F(CHARGE=TRAC,
                               FONC_MULT=COEF,
                               TYPE_CHARGE='FIXE_CSTE',),),
                     COMP_INCR=(_F(RELATION='MONOCRISTAL',
                                   COMPOR=COMPOR1,
                                   DEFORMATION='PETIT',
                                   ITER_INTE_MAXI=100,
                                   ITER_INTE_PAS=10,
                                   ALGO_INTE='NEWTON',
                                   TOUT='OUI',),),
                     INCREMENT=(_F(LIST_INST=LINST,),),
                     ARCHIVAGE=_F(LIST_INST=LINST,),
                     NEWTON=_F(REAC_ITER=1,),
                                     );

IMPL1=CALC_CHAMP(reuse=IMPL1,RESULTAT=IMPL1,DEFORMATION=('EPSI_ELGA','EPSP_ELGA'))



# COMPARAISON A VISC_CIN1_CHAB, MAIS PROBLEME DE SENSIBILITE AU PAS DE
# TEMPS. CELA CONVERGE QUAND DELTAT TEND VERS 0

TEST_RESU(RESU=(_F(RESULTAT=IMPL1,
                   INST=TFIN,
                   NOM_CHAM='SIEF_ELGA',
                   NOM_CMP='SIXX',
                   MAILLE='MA1',
                   POINT=1,
                   VALE=-95.5,
                   REFERENCE='ANALYTIQUE',),
                _F(RESULTAT=IMPL1,
                   INST=TFIN,
                   NOM_CHAM='EPSI_ELGA',
                   NOM_CMP='EPXX',
                   MAILLE='MA1',
                   POINT=1,
                   VALE=-0.0006764427,
                   REFERENCE='AUTRE_ASTER',),
                _F(RESULTAT=IMPL1,
                   INST=TFIN,
                   NOM_CHAM='EPSP_ELGA',
                   NOM_CMP='EPXX',
                   MAILLE='MA1',
                   POINT=1,
                   VALE=-1.87292E-05,
                   PRECISION=(0.02,0.0001,),
                   REFERENCE='AUTRE_ASTER',),),);

# EXPLICITE RUNGE_KUTTA : TEST DE MONO_VISC1, MONO_CINE1, MONO_CIN1

EXPL1=STAT_NON_LINE(MODELE=TROISD,
                    CHAM_MATER=MAT,
                    EXCIT=(_F(CHARGE=TRAC,
                              FONC_MULT=COEF,
                              TYPE_CHARGE='FIXE_CSTE',),),
                    COMP_INCR=(_F(RELATION='MONOCRISTAL',
                                  COMPOR=COMPOR1,
                                  DEFORMATION='PETIT',
                                  ALGO_INTE='RUNGE_KUTTA',
                                  TOUT='OUI',),),
                     NEWTON=(_F(PREDICTION='EXTRAPOLE',
                                MATRICE='ELASTIQUE',
                                REAC_ITER=0,),),
                    INCREMENT=(_F(LIST_INST=LINST,),),
                    );

EXPL1=CALC_CHAMP(reuse=EXPL1,RESULTAT=EXPL1,DEFORMATION=('EPSI_ELGA','EPSP_ELGA'))



TEST_RESU(RESU=(_F(RESULTAT=EXPL1,
                   INST=TFIN,
                   NOM_CHAM='SIEF_ELGA',
                   NOM_CMP='SIXX',
                   MAILLE='MA1',
                   POINT=1,
                   VALE=-95.5,
                   REFERENCE='ANALYTIQUE',),
                _F(RESULTAT=EXPL1,
                   INST=TFIN,
                   NOM_CHAM='EPSI_ELGA',
                   NOM_CMP='EPXX',
                   MAILLE='MA1',
                   POINT=1,
                   VALE=-0.0006764427,
                   PRECISION=(0.002,0.0001,),
                   REFERENCE='AUTRE_ASTER',),
                _F(RESULTAT=EXPL1,
                   INST=TFIN,
                   NOM_CHAM='EPSP_ELGA',
                   NOM_CMP='EPXX',
                   MAILLE='MA1',
                   POINT=1,
                   VALE=-1.87292E-05,
                   PRECISION=(0.04,0.0001,),
                   REFERENCE='AUTRE_ASTER',),),);


# IMPLICITE : TEST DE MONO_VISC2, MONO_LINE2, MONO_CIN2
# COMPARASION A IMPL1 : Avec les valeurs des coeffcients de MONO_CINE2, MONO_ISOT2, MONO_VISC2,
#                            on doit trouver la meme solution

IMPL2=STAT_NON_LINE(MODELE=TROISD,INFO=1,
                     CHAM_MATER=MAT,
                     EXCIT=(_F(CHARGE=TRAC,
                               FONC_MULT=COEF,
                               TYPE_CHARGE='FIXE_CSTE',),),
                     COMP_INCR=(_F(RELATION='MONOCRISTAL',
                                   COMPOR=COMPOR2,
                                   DEFORMATION='PETIT',
                                   ITER_INTE_MAXI=200,
                                   RESI_INTE_RELA=1.E-6,
                                   ITER_INTE_PAS=10,
                                   TOUT='OUI',),),
                     INCREMENT=(_F(LIST_INST=LINST,),),
                     NEWTON=(_F(REAC_ITER=1,PREDICTION='EXTRAPOLE'),),
                     ARCHIVAGE=_F(LIST_INST=LINST,),
                                     );

IMPL2=CALC_CHAMP(reuse=IMPL2,RESULTAT=IMPL2,DEFORMATION=('EPSI_ELGA','EPSP_ELGA'))



# test de non regression de MONO_CINE2, MONO_ISOT2, MONO_VISC2
TEST_RESU(RESU=(_F(RESULTAT=IMPL2,
                   INST=TFIN,
                   NOM_CHAM='SIEF_ELGA',
                   NOM_CMP='SIXX',
                   MAILLE='MA1',
                   POINT=1,
                   VALE=-95.5,
                   REFERENCE='ANALYTIQUE',),
                _F(RESULTAT=IMPL2,
                   INST=TFIN,
                   NOM_CHAM='EPSI_ELGA',
                   NOM_CMP='EPXX',
                   MAILLE='MA1',
                   POINT=1,
                   VALE=-6.76241E-04,
                   REFERENCE='AUTRE_ASTER',),
                _F(RESULTAT=IMPL2,
                   INST=TFIN,
                   NOM_CHAM='EPSP_ELGA',
                   NOM_CMP='EPXX',
                   MAILLE='MA1',
                   POINT=1,
                   VALE=-1.85279E-05,
                   PRECISION=(0.001,0.0001,),
                   REFERENCE='AUTRE_ASTER',),),);




# EXPLICITE RUNGE_KUTTA : TEST DE MONO_VISC2, MONO_LINE2, MONO_CIN2

EXPL2=STAT_NON_LINE(MODELE=TROISD,
                     CHAM_MATER=MAT,
                     EXCIT=(_F(CHARGE=TRAC,
                               FONC_MULT=COEF,
                               TYPE_CHARGE='FIXE_CSTE',),),
                     COMP_INCR=(_F(RELATION='MONOCRISTAL',
                                   COMPOR=COMPOR2,
                                   ITER_INTE_MAXI=100,
                                  # ITER_INTE_PAS=4,
                                   ALGO_INTE='RUNGE_KUTTA',
                                   TOUT='OUI',),),
                     INCREMENT=(_F(LIST_INST=LINST,),),
                     NEWTON=(_F(PREDICTION='EXTRAPOLE',
                                MATRICE='ELASTIQUE',
                                REAC_ITER=0,),),
                     );

EXPL2=CALC_CHAMP(reuse=EXPL2,RESULTAT=EXPL2,DEFORMATION=('EPSI_ELGA','EPSP_ELGA'))


TEST_RESU(RESU=(_F(RESULTAT=EXPL2,
                   INST=TFIN,
                   NOM_CHAM='SIEF_ELGA',
                   NOM_CMP='SIXX',
                   MAILLE='MA1',
                   POINT=1,
                   VALE=-95.5,
                   REFERENCE='ANALYTIQUE',),
                _F(RESULTAT=EXPL2,
                   INST=TFIN,
                   NOM_CHAM='EPSI_ELGA',
                   NOM_CMP='EPXX',
                   MAILLE='MA1',
                   POINT=1,
                   VALE=-0.0006757537,
                   REFERENCE='AUTRE_ASTER',),
                _F(RESULTAT=EXPL2,
                   INST=TFIN,
                   NOM_CHAM='EPSP_ELGA',
                   NOM_CMP='EPXX',
                   MAILLE='MA1',
                   POINT=1,
                   VALE=-1.804038e-05,
                   REFERENCE='AUTRE_ASTER',),
                   ),);


# test specfique MONO_VISC2, MONO_ISOT2, MONO_CINE2


RESUT2=STAT_NON_LINE(MODELE=TROISD,INFO=1,
                     CHAM_MATER=MATT2,
                     EXCIT=(_F(CHARGE=TRAC3,
                               FONC_MULT=COEF,
                               TYPE_CHARGE='FIXE_CSTE',),),
                     COMP_INCR=(_F(RELATION='MONOCRISTAL',
                                   COMPOR=COMPT2,
                                   DEFORMATION='PETIT',
                                   ITER_INTE_MAXI=200,
                                   RESI_INTE_RELA=1.E-6,
                                   ITER_INTE_PAS=10,
                                   TOUT='OUI',),),
                     INCREMENT=(_F(LIST_INST=LINST3,),),
                     NEWTON=(_F(PREDICTION='EXTRAPOLE'),),
                     ARCHIVAGE=_F(LIST_INST=LINST3,),
                  SUIVI_DDL=(_F(NOM_CMP    ='V1',
                                 NOM_CHAM   ='VARI_ELGA',
                                 TOUT       = 'OUI',
                                 EVAL_ELGA  ='MAX',
                                 EVAL_CHAM ='MAX',),
                              _F(NOM_CMP    ='V7',
                                 NOM_CHAM   ='VARI_ELGA',
                                 TOUT       = 'OUI',
                                 EVAL_ELGA  ='MAX',
                                 EVAL_CHAM ='MAX',),
                              _F(NOM_CMP    ='SIXX',
                                 NOM_CHAM   ='SIEF_ELGA',
                                 TOUT       = 'OUI',
                                 EVAL_ELGA  ='MAX',
                                 EVAL_CHAM ='MAX',),
                                 ),
                                     );

RESUT2=CALC_CHAMP(reuse=RESUT2,RESULTAT=RESUT2,DEFORMATION=('EPSI_ELGA','EPSP_ELGA'))



# test de non regression

TEST_RESU(RESU=(_F(RESULTAT=RESUT2,
                   INST=2.,
                   NOM_CHAM='SIEF_ELGA',
                   NOM_CMP='SIXX',
                   MAILLE='MA1',
                   POINT=1,
                   VALE=-95.9311,
                   REFERENCE='NON_REGRESSION',),
                _F(RESULTAT=RESUT2,
                   INST=2.,
                   NOM_CHAM='EPSI_ELGA',
                   NOM_CMP='EPXX',
                   MAILLE='MA1',
                   POINT=1,
                   VALE=-2.0E-03,
                   REFERENCE='NON_REGRESSION',),
                _F(RESULTAT=RESUT2,
                   INST=2.,
                   NOM_CHAM='EPSP_ELGA',
                   NOM_CMP='EPXX',
                   MAILLE='MA1',
                   POINT=1,
                   VALE=-1.3393175E-03,
                   PRECISION=(1.E-5,0.0001,),
                   REFERENCE='NON_REGRESSION',),
                   ),);

# IMPLICITE : TEST DE L'ORTHOTROPIE

IMPLORTH=STAT_NON_LINE(MODELE=TROISD,
                     CHAM_MATER=MATORTH,
                     EXCIT=(_F(CHARGE=TRAC,
                               FONC_MULT=COEF,
                               TYPE_CHARGE='FIXE_CSTE',),),
                     COMP_INCR=_F(RELATION='MONOCRISTAL',
                                   COMPOR=COMPORTH,
                                   DEFORMATION='PETIT',
                                   RESI_INTE_RELA=1e-06,
                                   ITER_INTE_MAXI=100,
                                   ITER_INTE_PAS=10,
                                   TOUT='OUI',),
                     INCREMENT=(_F(LIST_INST=LINST,),),
                    NEWTON=(_F( REAC_ITER=1,),),
                    CONVERGENCE=_F(RESI_GLOB_RELA=1e-06,
                                    ITER_GLOB_MAXI=100,),
                                     );

IMPLORTH=CALC_CHAMP(reuse=IMPLORTH,RESULTAT=IMPLORTH,DEFORMATION=('EPSI_ELGA'))




TEST_RESU(RESU=(_F(RESULTAT=IMPLORTH,
                   INST=TFIN,
                   NOM_CHAM='SIEF_ELGA',
                   NOM_CMP='SIXX',
                   MAILLE='MA1',
                   POINT=1,
                   VALE=-95.5,
                   REFERENCE='ANALYTIQUE',),
                _F(RESULTAT=IMPLORTH,
                   INST=TFIN,
                   NOM_CHAM='EPSI_ELGA',
                   NOM_CMP='EPXX',
                   MAILLE='MA1',
                   POINT=1,
                   VALE=-0.0006762412,
                   REFERENCE='AUTRE_ASTER',),
                   ),)


# EXPLICITE RUNGE_KUTTA : TEST DE  ORTHOTROPIE

EXPLORTH=STAT_NON_LINE(MODELE=TROISD,
                     CHAM_MATER=MATORTH,
                     EXCIT=(_F(CHARGE=TRAC,
                               FONC_MULT=COEF,
                               TYPE_CHARGE='FIXE_CSTE',),),
                     COMP_INCR=(_F(RELATION='MONOCRISTAL',
                                   COMPOR=COMPORTH,
                                   DEFORMATION='PETIT',
                                   ALGO_INTE='RUNGE_KUTTA',
                                   TOUT='OUI',),),
                      NEWTON=_F(PREDICTION='ELASTIQUE'),
                     INCREMENT=(_F(LIST_INST=LINST,),),
                    );

EXPLORTH=CALC_CHAMP(reuse=EXPLORTH,RESULTAT=EXPLORTH,DEFORMATION=('EPSI_ELGA'))




TEST_RESU(RESU=(_F(RESULTAT=EXPLORTH,
                   INST=TFIN,
                   NOM_CHAM='SIEF_ELGA',
                   NOM_CMP='SIXX',
                   MAILLE='MA1',
                   POINT=1,
                   VALE=-95.5,
                   REFERENCE='ANALYTIQUE',),
                _F(RESULTAT=EXPLORTH,
                   INST=TFIN,
                   NOM_CHAM='EPSI_ELGA',
                   NOM_CMP='EPXX',
                   MAILLE='MA1',
                   POINT=1,
                   VALE=-0.0006757537,
                   REFERENCE='AUTRE_ASTER',),
                   ),)


# test du zirconium (non regression pour le moment)



COMPORZ=DEFI_COMPOR(MONOCRISTAL=_F(MATER=ACIER,
                                    ECOULEMENT='MONO_VISC1',
                                    ECRO_ISOT='MONO_ISOT1',
                                    ECRO_CINE='MONO_CINE1',
                                    ELAS='ELAS',
                                    FAMI_SYST_GLIS='ZIRCONIUM',),

                                    );



IMPLZ=STAT_NON_LINE(MODELE=TROISD,INFO=1,
                     CHAM_MATER=MAT,
                     EXCIT=(_F(CHARGE=TRAC3,
                               FONC_MULT=COEF,
                               TYPE_CHARGE='FIXE_CSTE',),),
                     COMP_INCR=(_F(RELATION='MONOCRISTAL',
                                   COMPOR=COMPORZ,
                                   DEFORMATION='PETIT',
                                   ITER_INTE_MAXI=200,
                                   RESI_INTE_RELA=1.E-6,
                                   ITER_INTE_PAS=10,
                                   TOUT='OUI',),),
                     INCREMENT=(_F(LIST_INST=LINST3,),),
                     NEWTON=(_F(REAC_ITER=1,PREDICTION='EXTRAPOLE'),),
                     ARCHIVAGE=_F(LIST_INST=LINST3,),
                                     );

IMPLZ=CALC_CHAMP(reuse=IMPLZ,RESULTAT=IMPLZ,DEFORMATION=('EPSI_ELGA','EPSP_ELGA'))



# test de non regression

TEST_RESU(RESU=(_F(RESULTAT=IMPLZ,
                   INST=2.,
                   NOM_CHAM='SIEF_ELGA',
                   NOM_CMP='SIXX',
                   MAILLE='MA1',
                   POINT=1,
                   VALE=-212.30487238274,
                   REFERENCE='NON_REGRESSION',),
                _F(RESULTAT=IMPLZ,
                   INST=2.,
                   NOM_CHAM='EPSI_ELGA',
                   NOM_CMP='EPXX',
                   MAILLE='MA1',
                   POINT=1,
                   VALE=-2.0E-03,
                   REFERENCE='NON_REGRESSION',),
                _F(RESULTAT=IMPLZ,
                   INST=2.,
                   NOM_CHAM='EPSP_ELGA',
                   NOM_CMP='EPXX',
                   MAILLE='MA1',
                   POINT=1,
                   VALE=-5.378452315238E-04,
                   PRECISION=(0.001,0.0001,),
                   REFERENCE='NON_REGRESSION',),
                _F(RESULTAT=IMPLZ,
                   INST=2.,
                   NOM_CHAM='VARI_ELGA',
                   NOM_CMP='V92',
                   MAILLE='MA1',
                   POINT=1,
                   VALE=5.28677E-04,
                   PRECISION=(0.001,0.0001,),
                   REFERENCE='NON_REGRESSION',),
                   ),);



# second test du zirconium avec matrice d'interaction fournie dans une table


table=LIRE_TABLE( UNITE=40,
                   FORMAT='ASTER',
                   NUME_TABLE=1,
                   SEPARATEUR=' ',)

COMPORZ2=DEFI_COMPOR(MONOCRISTAL=_F(MATER=ACIER,
                                    ECOULEMENT='MONO_VISC1',
                                    ECRO_ISOT='MONO_ISOT1',
                                    ECRO_CINE='MONO_CINE1',
                                    ELAS='ELAS',
                                    FAMI_SYST_GLIS='ZIRCONIUM',),

                      MATR_INTER= table,
                                    );



IMPLZ2=STAT_NON_LINE(MODELE=TROISD,INFO=1,
                     CHAM_MATER=MAT,
                     EXCIT=(_F(CHARGE=TRAC3,
                               FONC_MULT=COEF,
                               TYPE_CHARGE='FIXE_CSTE',),),
                     COMP_INCR=(_F(RELATION='MONOCRISTAL',
                                   COMPOR=COMPORZ2,
                                   DEFORMATION='PETIT',
                                   ITER_INTE_MAXI=200,
                                   RESI_INTE_RELA=1.E-6,
                                   ITER_INTE_PAS=10,
                                   TOUT='OUI',),),
                     INCREMENT=(_F(LIST_INST=LINST3,),),
                     NEWTON=(_F(REAC_ITER=1,PREDICTION='EXTRAPOLE'),),
                     ARCHIVAGE=_F(LIST_INST=LINST3,),
                                     );

IMPLZ2=CALC_CHAMP(reuse=IMPLZ2,RESULTAT=IMPLZ2,DEFORMATION=('EPSI_ELGA','EPSP_ELGA'))



# test de non regression

TEST_RESU(RESU=(_F(RESULTAT=IMPLZ2,
                   INST=2.,
                   NOM_CHAM='SIEF_ELGA',
                   NOM_CMP='SIXX',
                   MAILLE='MA1',
                   POINT=1,
                   VALE=-212.30487238274,
                   REFERENCE='ANALYTIQUE',),
                _F(RESULTAT=IMPLZ2,
                   INST=2.,
                   NOM_CHAM='EPSI_ELGA',
                   NOM_CMP='EPXX',
                   MAILLE='MA1',
                   POINT=1,
                   VALE=-2.0E-03,
                   REFERENCE='AUTRE_ASTER',),
                _F(RESULTAT=IMPLZ2,
                   INST=2.,
                   NOM_CHAM='EPSP_ELGA',
                   NOM_CMP='EPXX',
                   MAILLE='MA1',
                   POINT=1,
                   VALE=-5.378452315238E-04,
                   PRECISION=(0.001,0.0001,),
                   REFERENCE='AUTRE_ASTER',),
                _F(RESULTAT=IMPLZ2,
                   INST=2.,
                   NOM_CHAM='VARI_ELGA',
                   NOM_CMP='V92',
                   MAILLE='MA1',
                   POINT=1,
                   VALE=5.28677E-04,
                   PRECISION=(0.001,0.0001,),
                   REFERENCE='AUTRE_ASTER',),
                   ),);

# troisieme test du zirconium polycristal avec matrice d'interaction fournie dans une table



COMPORZ3=DEFI_COMPOR(POLYCRISTAL=(
                        _F(MONOCRISTAL=COMPORZ2,FRAC_VOL=1,ANGL_EULER=(0.,0.,0.),),
                        ),
                    LOCALISATION='BETA',DL=0.,DA=0.,
                    );

IMPR_CO(CONCEPT=_F(NOM=COMPORZ3))

POLYZ3=STAT_NON_LINE(MODELE=TROISD,INFO=1,
                     CHAM_MATER=MAT,
                     EXCIT=(_F(CHARGE=TRAC3,
                               FONC_MULT=COEF,
                               TYPE_CHARGE='FIXE_CSTE',),),
                     COMP_INCR=(_F(RELATION='POLYCRISTAL',
                                   COMPOR=COMPORZ3,
                                   DEFORMATION='PETIT',
                                  # ITER_INTE_MAXI=200,
                                   RESI_INTE_RELA=1.E-6,
                                   ITER_INTE_PAS=10,
                                   TOUT='OUI',),),
                     INCREMENT=(_F(LIST_INST=LINST3,),),
                     NEWTON=(_F(PREDICTION='EXTRAPOLE'),),
                     CONVERGENCE=_F(ITER_GLOB_MAXI=11,
                                    ITER_GLOB_ELAS=25),
                     ARCHIVAGE=_F(LIST_INST=LINST3,),
                                     );

POLYZ3=CALC_CHAMP(reuse=POLYZ3,RESULTAT=POLYZ3,DEFORMATION=('EPSI_ELGA','EPSP_ELGA'))



# test de non regression

TEST_RESU(RESU=(_F(RESULTAT=POLYZ3,
                   INST=2.,
                   NOM_CHAM='SIEF_ELGA',
                   NOM_CMP='SIXX',
                   MAILLE='MA1',
                   POINT=1,
                   VALE=-212.30487238274,
                   REFERENCE='ANALYTIQUE',),
                _F(RESULTAT=POLYZ3,
                   INST=2.,
                   NOM_CHAM='EPSI_ELGA',
                   NOM_CMP='EPXX',
                   MAILLE='MA1',
                   POINT=1,
                   VALE=-2.0E-03,
                   REFERENCE='AUTRE_ASTER',),
                _F(RESULTAT=POLYZ3,
                   INST=2.,
                   NOM_CHAM='EPSP_ELGA',
                   NOM_CMP='EPXX',
                   MAILLE='MA1',
                   POINT=1,
                   VALE=-5.378452315238E-04,
                   PRECISION=(0.001,0.0001,),
                   REFERENCE='AUTRE_ASTER',),
                _F(RESULTAT=POLYZ3,
                   INST=2.,
                   NOM_CHAM='VARI_ELGA',
                   NOM_CMP='V99',
                   MAILLE='MA1',
                   POINT=1,
                   VALE=5.28677E-04,
                   PRECISION=(0.001,0.0001,),
                   REFERENCE='AUTRE_ASTER',),
                   ),);



ACIER1=DEFI_MATERIAU(ELAS=_F(E=145200.0,
                            NU=0.0,
                            ALPHA=0.),
                    MONO_VISC1=_F(N=10.0,
                                  K=40.0,
                                  C=10.0,),
                    MONO_ISOT1=_F(R_0=75.5,
                                  Q=9.77,
                                  B=19.34,
                                  H=0.0,),
                    MONO_CINE1=_F(D=36.68,),
                                  );

ACIER2=DEFI_MATERIAU(MONO_VISC1=_F(N=10.0,
                                  K=40.0,
                                  C=10.0,),
                    MONO_ISOT1=_F(R_0=75.5,
                                  Q=9.77,
                                  B=19.34,
                                  H=0.0,),
                    MONO_CINE1=_F(D=36.68,),
                                  );

ACIER3=DEFI_MATERIAU(MONO_VISC1=_F(N=10.0,
                                  K=40.0,
                                  C=10.0,),
                    MONO_ISOT1=_F(R_0=75.5,
                                  Q=9.77,
                                  B=19.34,
                                  H=0.0,),
                    MONO_CINE1=_F(D=36.68,),
                                  );

ACIER4=DEFI_MATERIAU(  MONO_VISC1=_F(N=10.0,
                                  K=40.0,
                                  C=10.0,),
                    MONO_ISOT1=_F(R_0=75.5,
                                  Q=9.77,
                                  B=19.34,
                                  H=0.0,),
                    MONO_CINE1=_F(D=36.68,),
                                  );

ACIER5=DEFI_MATERIAU( MONO_VISC1=_F(N=10.0,
                                  K=40.0,
                                  C=10.0,),
                    MONO_ISOT1=_F(R_0=75.5,
                                  Q=9.77,
                                  B=19.34,
                                  H=0.0,),
                    MONO_CINE1=_F(D=36.68,),
                                  );


######### TEST SYSTEMES DE GLISSEMENT UTILISATEUR

prism_a1=LIRE_TABLE( UNITE=49,
                   FORMAT='ASTER',
                   NUME_TABLE=1,
                   SEPARATEUR=' ',)

bas1    =LIRE_TABLE( UNITE=49,
                   FORMAT='ASTER',
                   NUME_TABLE=2,
                   SEPARATEUR=' ',)

pyr_a   =LIRE_TABLE( UNITE=49,
                   FORMAT='ASTER',
                   NUME_TABLE=3,
                   SEPARATEUR=' ',)

pyr_c_a =LIRE_TABLE( UNITE=49,
                   FORMAT='ASTER',
                   NUME_TABLE=4,
                   SEPARATEUR=' ',)

pyr2_c_a=LIRE_TABLE( UNITE=49,
                   FORMAT='ASTER',
                   NUME_TABLE=5,
                   SEPARATEUR=' ',)


COMPORZ4=DEFI_COMPOR(MONOCRISTAL=(
                                 _F(MATER=ACIER1,
                                    ECOULEMENT='MONO_VISC1',
                                    ECRO_ISOT ='MONO_ISOT1',
                                    ECRO_CINE ='MONO_CINE1',
                                    ELAS      ='ELAS',
                                    FAMI_SYST_GLIS='UTILISATEUR',
                                    TABL_SYST_GLIS=prism_a1),

                                 _F(MATER=ACIER2,
                                    ECOULEMENT='MONO_VISC1',
                                    ECRO_ISOT ='MONO_ISOT1',
                                    ECRO_CINE ='MONO_CINE1',
                                    FAMI_SYST_GLIS='UTILISATEUR',
                                    TABL_SYST_GLIS=bas1),

                                 _F(MATER=ACIER3,
                                    ECOULEMENT='MONO_VISC1',
                                    ECRO_ISOT ='MONO_ISOT1',
                                    ECRO_CINE ='MONO_CINE1',
                                    FAMI_SYST_GLIS='UTILISATEUR',
                                    TABL_SYST_GLIS=pyr_a),

                                 _F(MATER=ACIER4,
                                    ECOULEMENT='MONO_VISC1',
                                    ECRO_ISOT ='MONO_ISOT1',
                                    ECRO_CINE ='MONO_CINE1',
                                    FAMI_SYST_GLIS='UTILISATEUR',
                                    TABL_SYST_GLIS=pyr_c_a,
                                    ),

                                 _F(MATER=ACIER5,
                                    ECOULEMENT='MONO_VISC1',
                                    ECRO_ISOT ='MONO_ISOT1',
                                    ECRO_CINE ='MONO_CINE1',
                                    FAMI_SYST_GLIS='UTILISATEUR',
                                    TABL_SYST_GLIS=pyr2_c_a),

                                 ),
                      MATR_INTER= table,
                     );


MAT12345=AFFE_MATERIAU(MAILLAGE=CUBE,
                  AFFE=_F(TOUT='OUI',
                          MATER=(ACIER1,ACIER2,ACIER3,ACIER4,ACIER5)),);



IMPLZ4=STAT_NON_LINE(MODELE=TROISD,INFO=1,
                     CHAM_MATER=MAT12345,
                     EXCIT=(_F(CHARGE=TRAC3,
                               FONC_MULT=COEF,
                               TYPE_CHARGE='FIXE_CSTE',),),
                     COMP_INCR=(_F(RELATION='MONOCRISTAL',
                                   COMPOR=COMPORZ4,
                                   DEFORMATION='PETIT',
                                   ITER_INTE_MAXI=200,
                                   RESI_INTE_RELA=1.E-6,
                                   ITER_INTE_PAS=10,
                                   TOUT='OUI',),),
                     INCREMENT=(_F(LIST_INST=LINST3,),),
                     CONVERGENCE=_F(ITER_GLOB_MAXI=11,),
                     NEWTON=(_F(REAC_ITER=1,PREDICTION='EXTRAPOLE'),),
                     ARCHIVAGE=_F(LIST_INST=LINST3,),
                  SUIVI_DDL=(_F(NOM_CMP    ='V1',
                                 NOM_CHAM   ='VARI_ELGA',
                                 TOUT       = 'OUI',
                                 EVAL_ELGA  ='MAX',
                                 EVAL_CHAM ='MAX',),
                              _F(NOM_CMP    ='V98',
                                 NOM_CHAM   ='VARI_ELGA',
                                 TOUT       = 'OUI',
                                 EVAL_ELGA  ='MAX',
                                 EVAL_CHAM ='MAX',),
                              _F(NOM_CMP    ='SIXX',
                                 NOM_CHAM   ='SIEF_ELGA',
                                 TOUT       = 'OUI',
                                 EVAL_ELGA  ='MAX',
                                 EVAL_CHAM ='MAX',),
                                 ),
                                     );

IMPLZ4=CALC_CHAMP(reuse=IMPLZ4,RESULTAT=IMPLZ4,DEFORMATION=('EPSI_ELGA','EPSP_ELGA'))



# test de non regression

TEST_RESU(RESU=(_F(RESULTAT=IMPLZ4,
                   INST=2.,
                   NOM_CHAM='SIEF_ELGA',
                   NOM_CMP='SIXX',
                   MAILLE='MA1',
                   POINT=1,
                   VALE=-212.30487238274,
                   REFERENCE='ANALYTIQUE',),
                _F(RESULTAT=IMPLZ4,
                   INST=2.,
                   NOM_CHAM='EPSI_ELGA',
                   NOM_CMP='EPXX',
                   MAILLE='MA1',
                   POINT=1,
                   VALE=-2.0E-03,
                   REFERENCE='AUTRE_ASTER',),
                _F(RESULTAT=IMPLZ4,
                   INST=2.,
                   NOM_CHAM='EPSP_ELGA',
                   NOM_CMP='EPXX',
                   MAILLE='MA1',
                   POINT=1,
                   VALE=-5.378452315238E-04,
                   PRECISION=(0.001,0.0001,),
                   REFERENCE='AUTRE_ASTER',),
                _F(RESULTAT=IMPLZ4,
                   INST=2.,
                   NOM_CHAM='VARI_ELGA',
                   NOM_CMP='V92',
                   MAILLE='MA1',
                   POINT=1,
                   VALE=5.28677E-04,
                   PRECISION=(0.001,0.0001,),
                   REFERENCE='AUTRE_ASTER',),
                   ),);


COMPORZ5=DEFI_COMPOR(POLYCRISTAL=(
                        _F(MONOCRISTAL=COMPORZ4,FRAC_VOL=1,ANGL_EULER=(0.,0.,0.),),
                        ),
                    LOCALISATION='BETA',DL=0.,DA=0.,
                    );


POLYZ5=STAT_NON_LINE(MODELE=TROISD,INFO=1,
                     CHAM_MATER=MAT12345,
                     EXCIT=(_F(CHARGE=TRAC3,
                               FONC_MULT=COEF,
                               TYPE_CHARGE='FIXE_CSTE',),),
                     COMP_INCR=(_F(RELATION='POLYCRISTAL',
                                   COMPOR=COMPORZ5,
                                   DEFORMATION='PETIT',
                                  # ITER_INTE_MAXI=200,
                                   RESI_INTE_RELA=1.E-6,
                                  # ITER_INTE_PAS=10,
                                   TOUT='OUI',),),
                     INCREMENT=(_F(LIST_INST=LINST3,),),
                     NEWTON=(_F(PREDICTION='EXTRAPOLE'),),
                     CONVERGENCE=_F(ITER_GLOB_MAXI=11,),
                     ARCHIVAGE=_F(LIST_INST=LINST3,),
                  SUIVI_DDL=(_F(NOM_CMP    ='V1',
                                 NOM_CHAM   ='VARI_ELGA',
                                 TOUT       = 'OUI',
                                 EVAL_ELGA  ='MAX',
                                 EVAL_CHAM ='MAX',),
                              _F(NOM_CMP    ='V7',
                                 NOM_CHAM   ='VARI_ELGA',
                                 TOUT       = 'OUI',
                                 EVAL_ELGA  ='MAX',
                                 EVAL_CHAM ='MAX',),
                              _F(NOM_CMP    ='SIXX',
                                 NOM_CHAM   ='SIEF_ELGA',
                                 TOUT       = 'OUI',
                                 EVAL_ELGA  ='MAX',
                                 EVAL_CHAM ='MAX',),
                                 ),
                                     );

POLYZ5=CALC_CHAMP(reuse=POLYZ5,RESULTAT=POLYZ5,DEFORMATION=('EPSI_ELGA','EPSP_ELGA'))



# test de non regression

TEST_RESU(RESU=(_F(RESULTAT=POLYZ5,
                   INST=2.,
                   NOM_CHAM='SIEF_ELGA',
                   NOM_CMP='SIXX',
                   MAILLE='MA1',
                   POINT=1,
                   VALE=-212.30487238274,
                   REFERENCE='ANALYTIQUE',),
                _F(RESULTAT=POLYZ5,
                   INST=2.,
                   NOM_CHAM='EPSI_ELGA',
                   NOM_CMP='EPXX',
                   MAILLE='MA1',
                   POINT=1,
                   VALE=-2.0E-03,
                   REFERENCE='AUTRE_ASTER',),
                _F(RESULTAT=POLYZ5,
                   INST=2.,
                   NOM_CHAM='EPSP_ELGA',
                   NOM_CMP='EPXX',
                   MAILLE='MA1',
                   POINT=1,
                   VALE=-5.378452315238E-04,
                   PRECISION=(0.003,0.0001,),
                   REFERENCE='AUTRE_ASTER',),
                _F(RESULTAT=POLYZ5,
                   INST=2.,
                   NOM_CHAM='VARI_ELGA',
                   NOM_CMP='V99',
                   MAILLE='MA1',
                   POINT=1,
                   VALE=5.28677E-04,
                   PRECISION=(0.008,0.0001,),
                   REFERENCE='AUTRE_ASTER',),
                   ),);



# TEST DE MONO_KR (Anciennement KOCKS_RAUCH)

IMPLKR=STAT_NON_LINE(MODELE=TROISD,
                     CHAM_MATER=MATKR,
                     CARA_ELEM=ORIENKR,
                     EXCIT=(_F(CHARGE=TRAC3,
                               FONC_MULT=COEF,
                               TYPE_CHARGE='FIXE_CSTE',),),
                     COMP_INCR=(_F(RELATION='MONOCRISTAL',
                                   COMPOR=COMPORKR,
                                   ITER_INTE_MAXI=100,
                                  # ITER_INTE_PAS=10,
                                   ALGO_INTE='NEWTON',
                                   TOUT='OUI',),),
                     INCREMENT=(_F(LIST_INST=LINST3,),),
                     NEWTON=(_F(PREDICTION='EXTRAPOLE',
                                REAC_ITER=1,),),
                     ARCHIVAGE=_F(LIST_INST=LINST3,),
                     CONVERGENCE=(_F(RESI_GLOB_RELA=1e-06,
                                     ITER_GLOB_MAXI=11,),),);

IMPLKR=CALC_CHAMP(reuse=IMPLKR,RESULTAT=IMPLKR,DEFORMATION=('EPSI_ELGA','EPSP_ELGA'))


TEST_RESU(RESU=(_F(RESULTAT=IMPLKR,
                   INST=TFIN3,
                   NOM_CHAM='SIEF_ELGA',
                   NOM_CMP='SIXX',
                   MAILLE='MA1',
                   POINT=1,
                   VALE=-3.2437E+02,PRECISION=(0.004,0.0001),
                   REFERENCE='SOURCE_EXTERNE',),
                _F(RESULTAT=IMPLKR,
                   INST=TFIN3,
                   NOM_CHAM='EPSP_ELGA',
                   NOM_CMP='EPXX',
                   MAILLE='MA1',
                   POINT=1,
                   VALE=-8.1822E-04,PRECISION=(0.002,0.0001),
                   REFERENCE='SOURCE_EXTERNE',),
                   ),)




EXPLKR=STAT_NON_LINE(MODELE=TROISD,
                     CHAM_MATER=MATKR,
                     CARA_ELEM=ORIENKR,
                     EXCIT=(_F(CHARGE=TRAC3,
                               FONC_MULT=COEF,
                               TYPE_CHARGE='FIXE_CSTE',),),
                     COMP_INCR=(_F(RELATION='MONOCRISTAL',
                                   COMPOR=COMPORKR,
                                   ALGO_INTE='RUNGE_KUTTA',
                                   TOUT='OUI',),),
                     INCREMENT=(_F(LIST_INST=LINST3C,),),
                     NEWTON=(_F(PREDICTION='EXTRAPOLE',
                               MATRICE='ELASTIQUE'),),
                     CONVERGENCE=(_F(ITER_GLOB_MAXI=11,),),
                     ARCHIVAGE=_F(LIST_INST=LINST3,),
                                     )

EXPLKR=CALC_CHAMP(reuse=EXPLKR,RESULTAT=EXPLKR,DEFORMATION=('EPSI_ELGA','EPSP_ELGA'))



TEST_RESU(RESU=(_F(RESULTAT=EXPLKR,
                   INST=TFIN3,
                   NOM_CHAM='SIEF_ELGA',
                   NOM_CMP='SIXX',
                   MAILLE='MA1',
                   POINT=1,
                   VALE=-3.2437E+02,PRECISION=(0.004,0.0001),
                   REFERENCE='SOURCE_EXTERNE',),
                _F(RESULTAT=EXPLKR,
                   INST=TFIN3,
                   NOM_CHAM='EPSP_ELGA',
                   NOM_CMP='EPXX',
                   MAILLE='MA1',
                   POINT=1,
                   VALE=-8.1822E-04,PRECISION=(0.0005,0.0001),
                   REFERENCE='SOURCE_EXTERNE',),
                   ),)



EXPLKRP=STAT_NON_LINE(MODELE=TROISD,
                     CHAM_MATER=MATKR,
                     CARA_ELEM=ORIENKR,
                     EXCIT=(_F(CHARGE=TRAC3,
                               FONC_MULT=COEF,
                               TYPE_CHARGE='FIXE_CSTE',),),
                     COMP_INCR=(_F(RELATION='POLYCRISTAL',
                                   COMPOR=COMPORP,
                                   ALGO_INTE='RUNGE_KUTTA',
                                   TOUT='OUI',),),
                     INCREMENT=(_F(LIST_INST=LINST3C,),),
                     NEWTON=(_F(PREDICTION='EXTRAPOLE',
                               MATRICE='ELASTIQUE'),),
                     CONVERGENCE=(_F(ITER_GLOB_MAXI=11,),),
                     ARCHIVAGE=_F(LIST_INST=LINST3,),
                                     )

EXPLKRP=CALC_CHAMP(reuse=EXPLKRP,RESULTAT=EXPLKRP,DEFORMATION=('EPSI_ELGA','EPSP_ELGA'))



TEST_RESU(RESU=(_F(RESULTAT=EXPLKRP,
                   INST=TFIN3,
                   NOM_CHAM='SIEF_ELGA',
                   NOM_CMP='SIXX',
                   MAILLE='MA1',
                   POINT=1,
                   VALE=-3.2437E+02,PRECISION=(0.004,0.0001),
                   REFERENCE='SOURCE_EXTERNE',),
                _F(RESULTAT=EXPLKRP,
                   INST=TFIN3,
                   NOM_CHAM='EPSP_ELGA',
                   NOM_CMP='EPXX',
                   MAILLE='MA1',
                   POINT=1,
                   VALE=-8.1822E-04,PRECISION=(0.0005,0.0001),
                   REFERENCE='SOURCE_EXTERNE',),
                   ),)

FIN();


