# TITRE VALIDATION DE LA LOI ENDO_SCALAIRE ET DU PILOTAGE PRED_ELAS POUR LA MODELISATION 3D_GRAD_VARI
# ======================================================================
# COPYRIGHT (C) 1991 - 2012  EDF R&D                  WWW.CODE-ASTER.ORG
# THIS PROGRAM IS FREE SOFTWARE; YOU CAN REDISTRIBUTE IT AND/OR MODIFY
# IT UNDER THE TERMS OF THE GNU GENERAL PUBLIC LICENSE AS PUBLISHED BY
# THE FREE SOFTWARE FOUNDATION; EITHER VERSION 2 OF THE LICENSE, OR
# (AT YOUR OPTION) ANY LATER VERSION.
#
# THIS PROGRAM IS DISTRIBUTED IN THE HOPE THAT IT WILL BE USEFUL, BUT
# WITHOUT ANY WARRANTY; WITHOUT EVEN THE IMPLIED WARRANTY OF
# MERCHANTABILITY OR FITNESS FOR A PARTICULAR PURPOSE. SEE THE GNU
# GENERAL PUBLIC LICENSE FOR MORE DETAILS.
#
# YOU SHOULD HAVE RECEIVED A COPY OF THE GNU GENERAL PUBLIC LICENSE
# ALONG WITH THIS PROGRAM; IF NOT, WRITE TO EDF R&D CODE_ASTER,
#    1 AVENUE DU GENERAL DE GAULLE, 92141 CLAMART CEDEX, FRANCE.
# ======================================================================

DEBUT(CODE=_F(NOM='SSNV223B',NIV_PUB_WEB='INTERNET',VISU_EFICAS='NON'),
      PAR_LOT = 'OUI')

E       = 30000.
NU      = 0.2
ft      = 3.
Gf      = 0.1
D       = 50.
p       = 5.
fc      = 15.
tau     = 4.


wy   = 0.5*ft**2/E
k    = 0.75*Gf/D
m    = k/wy
C    = 0.375*Gf*D
pena = 1.E3 * k
comp = (fc-ft)*tau*(1+NU)*3**0.5/(2*ft*fc*(1-2*NU))
coef = (fc+ft)*tau*(1+NU)*3**0.5/(2*ft*fc*(1+NU))
volu = (coef**2-1)*2*(1+NU)/(1-2*NU)


# solution analytique pour a = 0.6
# --------------------------------

cS = E/2./( (1-2*NU)*comp + (1+NU)*(volu/2*(1-2*NU)/(1+NU)+1)**0.5 )**2
cT = comp * cS**0.5
cH = volu * cS * 0.5*(1+NU)/(1-2*NU)

a    = 0.6
Da   = m*(a-1)*(a+1+2*p*a)/( (1-a)**2 + m*a*(1+p*a) )**2
Geps = -k/Da
eps  = Geps**0.5 / (cT+(cH+cS)**0.5)


# Orientation en biais de la sollicitation

nx =  1/14**0.5
ny =  2/14**0.5
nz =  3/14**0.5


# -----------------------------------------------------
#                 MAILLAGE ET MODELE
# -----------------------------------------------------

MA  =  LIRE_MAILLAGE(FORMAT = 'MED')

MO = AFFE_MODELE(
  MAILLAGE = MA,
  AFFE     = _F(
    GROUP_MA     = 'MATIERE',
    PHENOMENE    = 'MECANIQUE',
    MODELISATION = '3D_GRAD_VARI'
    ),
  )


# -----------------------------------------------------
#                     MATERIAU
# -----------------------------------------------------

BETON = DEFI_MATERIAU(
  ELAS          = _F(E=E, NU=NU),
  ENDO_SCALAIRE = _F(K=k,M=m,P=p,C_VOLU=volu,C_COMP=comp),
  NON_LOCAL     = _F(C_GRAD_VARI = C, PENA_LAGR = pena),
  )

CHMAT = AFFE_MATERIAU(
  MAILLAGE = MA,
  AFFE = _F(
    GROUP_MA = 'MATIERE',
    MATER    =  BETON
    ),
  )


# -----------------------------------------------------
#                CHARGEMENT ET INSTANTS
# -----------------------------------------------------

dx = {}
dy = {}
dz = {}
for i in [0,1,2]:
  for j in [0,1,2]:
    for k in [0,1,2]:
      dx[i*100+j*10+k] = eps*(nx*i+ny*j+nz*k)*nx
      dy[i*100+j*10+k] = eps*(nx*i+ny*j+nz*k)*ny
      dz[i*100+j*10+k] = eps*(nx*i+ny*j+nz*k)*nz


TRACTION = AFFE_CHAR_MECA(
  MODELE = MO,
  DDL_IMPO = (
    _F(GROUP_NO='000',DX=dx[  0],DY=dy[  0],DZ=dz[  0]),
    _F(GROUP_NO='100',DX=dx[100],DY=dy[100],DZ=dz[100]),
    _F(GROUP_NO='200',DX=dx[200],DY=dy[200],DZ=dz[200]),
    _F(GROUP_NO='210',DX=dx[210],DY=dy[210],DZ=dz[210]),
    _F(GROUP_NO='220',DX=dx[220],DY=dy[220],DZ=dz[220]),
    _F(GROUP_NO='120',DX=dx[120],DY=dy[120],DZ=dz[120]),
    _F(GROUP_NO='020',DX=dx[ 20],DY=dy[ 20],DZ=dz[ 20]),
    _F(GROUP_NO='010',DX=dx[ 10],DY=dy[ 10],DZ=dz[ 10]),
    _F(GROUP_NO='001',DX=dx[  1],DY=dy[  1],DZ=dz[  1]),
    _F(GROUP_NO='201',DX=dx[201],DY=dy[201],DZ=dz[201]),
    _F(GROUP_NO='221',DX=dx[221],DY=dy[221],DZ=dz[221]),
    _F(GROUP_NO='021',DX=dx[ 21],DY=dy[ 21],DZ=dz[ 21]),
    _F(GROUP_NO='002',DX=dx[  2],DY=dy[  2],DZ=dz[  2]),
    _F(GROUP_NO='102',DX=dx[102],DY=dy[102],DZ=dz[102]),
    _F(GROUP_NO='202',DX=dx[202],DY=dy[202],DZ=dz[202]),
    _F(GROUP_NO='212',DX=dx[212],DY=dy[212],DZ=dz[212]),
    _F(GROUP_NO='222',DX=dx[222],DY=dy[222],DZ=dz[222]),
    _F(GROUP_NO='122',DX=dx[122],DY=dy[122],DZ=dz[122]),
    _F(GROUP_NO='022',DX=dx[ 22],DY=dy[ 22],DZ=dz[ 22]),
    _F(GROUP_NO='012',DX=dx[ 12],DY=dy[ 12],DZ=dz[ 12]),
    ),
  )


INSTANTS = DEFI_LIST_REEL(
  DEBUT = 0,
  INTERVALLE = (
    _F(JUSQU_A = 100, NOMBRE = 100)
    )
  )


EVOL = STAT_NON_LINE(
  MODELE     = MO,
  CHAM_MATER = CHMAT,
  EXCIT      = _F(CHARGE = TRACTION, TYPE_CHARGE = 'FIXE_PILO'),
  PILOTAGE   = _F(
    TYPE           = 'DEFORMATION',
    SELECTION      = 'MIXTE',
    COEF_MULT      =  1E4,
    ETA_PILO_R_MIN =   0,
    ETA_PILO_R_MAX =  10,
    ETA_PILO_MAX   =   1,
    PROJ_BORNES    = 'OUI',
    ),
  COMPORTEMENT = _F(RELATION  = 'ENDO_SCALAIRE'),
  INCREMENT = _F(LIST_INST = INSTANTS),
  NEWTON    = _F(MATRICE='TANGENTE', REAC_ITER = 1),
  CONVERGENCE = _F(
    SIGM_REFE      = ft,
    VARI_REFE      = 1.,
    LAGR_REFE      = k,
    RESI_REFE_RELA = 1.E-5,
    ITER_GLOB_MAXI = 15,
    ),
  SOLVEUR   = _F(
    METHODE     = 'MUMPS',

    ),
  )

tfin_pilo = 9.

# -----------------------------------------------------
#    EXTRAPOLATION DES VARIABLES INTERNES AUX NOEUDS
# -----------------------------------------------------

EVOL=CALC_CHAMP(reuse =EVOL,
                RESULTAT=EVOL,
                CONTRAINTE=('SIGM_ELGA','SIGM_ELNO','SIEF_ELNO'),
                VARI_INTERNE=('VARI_ELNO','VARI_NOEU'));

# -----------------------------------------------------
#     EXTRACTION SUR LA FACE DROITE DU QUADGRANGLE
# -----------------------------------------------------

RESU = POST_RELEVE_T(
  ACTION = _F(
    INTITULE  = 'RESULTAT',
    OPERATION = 'EXTRACTION',
    RESULTAT  =  EVOL,
    NOM_CHAM  = 'VARI_NOEU',
    NOM_CMP   = 'V1',
    GROUP_NO  = ('200','210','220'),
    ),
  )

IMPR_TABLE(TABLE=RESU)

# -----------------------------------------------------
#      COMPARAISON AVEC LES VALEURS DE REFERENCE
# -----------------------------------------------------


TEST_TABLE(REFERENCE='ANALYTIQUE',
           PRECISION=1.E-3,
           VALE_CALC=0.600568021,
           VALE_REFE=0.59999999999999998,
           NOM_PARA='V1',
           TABLE=RESU,
           FILTRE=(_F(NOM_PARA='INST',
                      VALE=9.0,),
                   _F(NOM_PARA='COOR_Y',
                      VALE=0,),
                   ),
           )

TEST_TABLE(REFERENCE='ANALYTIQUE',
           PRECISION=1.E-3,
           VALE_CALC=0.600568021,
           VALE_REFE=0.59999999999999998,
           NOM_PARA='V1',
           TABLE=RESU,
           FILTRE=(_F(NOM_PARA='INST',
                      VALE=9.0,),
                   _F(NOM_PARA='COOR_Y',
                      VALE=1,),
                   ),
           )

TEST_TABLE(REFERENCE='ANALYTIQUE',
           PRECISION=1.E-3,
           VALE_CALC=0.600568021,
           VALE_REFE=0.59999999999999998,
           NOM_PARA='V1',
           TABLE=RESU,
           FILTRE=(_F(NOM_PARA='INST',
                      VALE=9.0,),
                   _F(NOM_PARA='COOR_Y',
                      VALE=2,),
                   ),
           )

#ENGENDRE_TEST(CO=EVOL);

TEST_RESU(RESU=(_F(NUME_ORDRE=0,
                   TYPE_TEST='SOMM_ABS',
                   RESULTAT=EVOL,
                   NOM_CHAM='SIGM_ELGA',
                   VALE_CALC=0.0,
                   CRITERE='ABSOLU',
                   ),
                _F(NUME_ORDRE=1,
                   TYPE_TEST='SOMM_ABS',
                   RESULTAT=EVOL,
                   NOM_CHAM='SIGM_ELGA',
                   VALE_CALC=15.419368272223,
                   ),
                _F(NUME_ORDRE=2,
                   TYPE_TEST='SOMM_ABS',
                   RESULTAT=EVOL,
                   NOM_CHAM='SIGM_ELGA',
                   VALE_CALC=11.393943470433999,
                   ),
                _F(NUME_ORDRE=3,
                   TYPE_TEST='SOMM_ABS',
                   RESULTAT=EVOL,
                   NOM_CHAM='SIGM_ELGA',
                   VALE_CALC=8.9813856706623998,
                   ),
                _F(NUME_ORDRE=4,
                   TYPE_TEST='SOMM_ABS',
                   RESULTAT=EVOL,
                   NOM_CHAM='SIGM_ELGA',
                   VALE_CALC=7.3266300946653002,
                   ),
                _F(NUME_ORDRE=5,
                   TYPE_TEST='SOMM_ABS',
                   RESULTAT=EVOL,
                   NOM_CHAM='SIGM_ELGA',
                   VALE_CALC=6.1083714351056999,
                   ),
                _F(NUME_ORDRE=6,
                   TYPE_TEST='SOMM_ABS',
                   RESULTAT=EVOL,
                   NOM_CHAM='SIGM_ELGA',
                   VALE_CALC=5.1725609464235003,
                   ),
                _F(NUME_ORDRE=7,
                   TYPE_TEST='SOMM_ABS',
                   RESULTAT=EVOL,
                   NOM_CHAM='SIGM_ELGA',
                   VALE_CALC=4.4296538039286997,
                   ),
                _F(NUME_ORDRE=8,
                   TYPE_TEST='SOMM_ABS',
                   RESULTAT=EVOL,
                   NOM_CHAM='SIGM_ELGA',
                   VALE_CALC=3.8283496672754,
                   ),
                _F(NUME_ORDRE=9,
                   TYPE_TEST='SOMM_ABS',
                   RESULTAT=EVOL,
                   NOM_CHAM='SIGM_ELGA',
                   VALE_CALC=3.5168444268496999,
                   ),
                _F(NUME_ORDRE=0,
                   TYPE_TEST='SOMM_ABS',
                   RESULTAT=EVOL,
                   NOM_CHAM='SIEF_ELNO',
                   VALE_CALC=0.0,
                   CRITERE='ABSOLU',
                   ),
                _F(NUME_ORDRE=1,
                   TYPE_TEST='SOMM_ABS',
                   RESULTAT=EVOL,
                   NOM_CHAM='SIEF_ELNO',
                   VALE_CALC=38.548420688927003,
                   ),
                _F(NUME_ORDRE=2,
                   TYPE_TEST='SOMM_ABS',
                   RESULTAT=EVOL,
                   NOM_CHAM='SIEF_ELNO',
                   VALE_CALC=28.484860189487001,
                   ),
                _F(NUME_ORDRE=3,
                   TYPE_TEST='SOMM_ABS',
                   RESULTAT=EVOL,
                   NOM_CHAM='SIEF_ELNO',
                   VALE_CALC=22.453464272647999,
                   ),
                _F(NUME_ORDRE=4,
                   TYPE_TEST='SOMM_ABS',
                   RESULTAT=EVOL,
                   NOM_CHAM='SIEF_ELNO',
                   VALE_CALC=18.316575251747999,
                   ),
                _F(NUME_ORDRE=5,
                   TYPE_TEST='SOMM_ABS',
                   RESULTAT=EVOL,
                   NOM_CHAM='SIEF_ELNO',
                   VALE_CALC=15.270928591485999,
                   ),
                _F(NUME_ORDRE=6,
                   TYPE_TEST='SOMM_ABS',
                   RESULTAT=EVOL,
                   NOM_CHAM='SIEF_ELNO',
                   VALE_CALC=12.931413005896999,
                   ),
                _F(NUME_ORDRE=7,
                   TYPE_TEST='SOMM_ABS',
                   RESULTAT=EVOL,
                   NOM_CHAM='SIEF_ELNO',
                   VALE_CALC=11.074141224227001,
                   ),
                _F(NUME_ORDRE=8,
                   TYPE_TEST='SOMM_ABS',
                   RESULTAT=EVOL,
                   NOM_CHAM='SIEF_ELNO',
                   VALE_CALC=9.5708786903730001,
                   ),
                _F(NUME_ORDRE=9,
                   TYPE_TEST='SOMM_ABS',
                   RESULTAT=EVOL,
                   NOM_CHAM='SIEF_ELNO',
                   VALE_CALC=8.7923032904545,
                   ),
                _F(NUME_ORDRE=0,
                   TYPE_TEST='SOMM_ABS',
                   RESULTAT=EVOL,
                   NOM_CHAM='SIGM_ELNO',
                   VALE_CALC=0.0,
                   CRITERE='ABSOLU',
                   ),
                _F(NUME_ORDRE=1,
                   TYPE_TEST='SOMM_ABS',
                   RESULTAT=EVOL,
                   NOM_CHAM='SIGM_ELNO',
                   VALE_CALC=38.548420680557001,
                   ),
                _F(NUME_ORDRE=2,
                   TYPE_TEST='SOMM_ABS',
                   RESULTAT=EVOL,
                   NOM_CHAM='SIGM_ELNO',
                   VALE_CALC=28.484858676085,
                   ),
                _F(NUME_ORDRE=3,
                   TYPE_TEST='SOMM_ABS',
                   RESULTAT=EVOL,
                   NOM_CHAM='SIGM_ELNO',
                   VALE_CALC=22.453464176655999,
                   ),
                _F(NUME_ORDRE=4,
                   TYPE_TEST='SOMM_ABS',
                   RESULTAT=EVOL,
                   NOM_CHAM='SIGM_ELNO',
                   VALE_CALC=18.316575236662999,
                   ),
                _F(NUME_ORDRE=5,
                   TYPE_TEST='SOMM_ABS',
                   RESULTAT=EVOL,
                   NOM_CHAM='SIGM_ELNO',
                   VALE_CALC=15.270928587764001,
                   ),
                _F(NUME_ORDRE=6,
                   TYPE_TEST='SOMM_ABS',
                   RESULTAT=EVOL,
                   NOM_CHAM='SIGM_ELNO',
                   VALE_CALC=12.931402366059,
                   ),
                _F(NUME_ORDRE=7,
                   TYPE_TEST='SOMM_ABS',
                   RESULTAT=EVOL,
                   NOM_CHAM='SIGM_ELNO',
                   VALE_CALC=11.074134509822001,
                   ),
                _F(NUME_ORDRE=8,
                   TYPE_TEST='SOMM_ABS',
                   RESULTAT=EVOL,
                   NOM_CHAM='SIGM_ELNO',
                   VALE_CALC=9.5708741681884995,
                   ),
                _F(NUME_ORDRE=9,
                   TYPE_TEST='SOMM_ABS',
                   RESULTAT=EVOL,
                   NOM_CHAM='SIGM_ELNO',
                   VALE_CALC=8.7921110671244005,
                   ),
                ),
          )

FIN()
