# TITRE TOLE ONDULEE ENCASTREE SUR UN BORD EN DEFORMATION PLANE
# ======================================================================
# COPYRIGHT (C) 1991 - 2012  EDF R&D                  WWW.CODE-ASTER.ORG
# THIS PROGRAM IS FREE SOFTWARE; YOU CAN REDISTRIBUTE IT AND/OR MODIFY
# IT UNDER THE TERMS OF THE GNU GENERAL PUBLIC LICENSE AS PUBLISHED BY
# THE FREE SOFTWARE FOUNDATION; EITHER VERSION 2 OF THE LICENSE, OR
# (AT YOUR OPTION) ANY LATER VERSION.
#
# THIS PROGRAM IS DISTRIBUTED IN THE HOPE THAT IT WILL BE USEFUL, BUT
# WITHOUT ANY WARRANTY; WITHOUT EVEN THE IMPLIED WARRANTY OF
# MERCHANTABILITY OR FITNESS FOR A PARTICULAR PURPOSE. SEE THE GNU
# GENERAL PUBLIC LICENSE FOR MORE DETAILS.
#
# YOU SHOULD HAVE RECEIVED A COPY OF THE GNU GENERAL PUBLIC LICENSE
# ALONG WITH THIS PROGRAM; IF NOT, WRITE TO EDF R&D CODE_ASTER,
#    1 AVENUE DU GENERAL DE GAULLE, 92141 CLAMART CEDEX, FRANCE.
# ======================================================================
#             SELON OZ
#=======================================================================
#

DEBUT(CODE=_F(NIV_PUB_WEB='INTERNET'),DEBUG=_F(SDVERI='OUI'))

MATERI_1=DEFI_MATERIAU( ELAS=_F(  E = 2000.,        NU = 0.3000),
#                      ECRO_LINE:( D_SIGM_EPSI:10.5E+4, SY:55.E+2) );
                       ECRO_LINE=_F(  D_SIGM_EPSI = 200.,    SY = 100.E+0) )

MAILLA_1=LIRE_MAILLAGE(FORMAT='MED',   )

MAILLA_1=DEFI_GROUP( reuse=MAILLA_1,   MAILLAGE=MAILLA_1,
  CREA_GROUP_MA=_F(  NOM = 'TOUT', TOUT = 'OUI'))

CH_MAT_1=AFFE_MATERIAU(  MAILLAGE=MAILLA_1,
                            AFFE=_F(  TOUT = 'OUI',   MATER = MATERI_1) )

MODELE_1=AFFE_MODELE(  MAILLAGE=MAILLA_1, VERIF='MAILLE',
                     AFFE=_F( TOUT = 'OUI', MODELISATION = 'COQUE_3D',
                                PHENOMENE = 'MECANIQUE') )

CINEMATI=AFFE_CHAR_MECA(MODELE=MODELE_1,DDL_IMPO=(
                _F( GROUP_NO = 'DEFPLN', DRY = 0., DRX = 0., DZ = 0.),
                _F( GROUP_NO = 'DEFPLM', DRY = 0., DRX = 0.),
                _F( GROUP_NO = 'AB',    DX = 0., DY = 0., DRZ = 0.),
                _F( GROUP_NO = 'AB',    DRX = 0.,DRY = 0.,DZ = 0.))
           )

CHARGE_1=AFFE_CHAR_MECA(MODELE=MODELE_1,FORCE_NODALE=(
         _F( GROUP_NO = 'C',       FX = 0.083333333333),
         _F( GROUP_NO = 'D',       FX = 0.083333333333),
         _F( GROUP_NO = 'E',       FX = 0.333333333333))
           )

CHARGE_2=AFFE_CHAR_MECA(MODELE=MODELE_1,
          FORCE_ARETE=_F( MAILLE = 'MA000025',   FX = 5.)
           )

CARAC__1=AFFE_CARA_ELEM(   MODELE=MODELE_1,
                           COQUE=_F(COQUE_NCOU=3,
       GROUP_MA = 'TOUT',
     EPAIS = 0.050,
                                       A_CIS = 0.83333333333333) )

RAMPE=DEFI_FONCTION(  NOM_PARA='INST',
            PROL_GAUCHE='LINEAIRE', PROL_DROITE='LINEAIRE',
            VALE=(0.0,0.0,1.0,1.0,) )

L_INST=DEFI_LIST_REEL(  DEBUT=0.0,
                INTERVALLE=_F( JUSQU_A = 1.,   NOMBRE = 10)
                                                  )

U=STAT_NON_LINE(
                            MODELE=MODELE_1,
                        CHAM_MATER=CH_MAT_1,
                         CARA_ELEM=CARAC__1,EXCIT=(
                             _F(
                CHARGE = CINEMATI), _F(
                CHARGE = CHARGE_1,
                FONC_MULT = RAMPE)),
                         COMPORTEMENT=_F(
                RELATION = 'VMIS_ISOT_LINE',
                ITER_INTE_MAXI = 30,
               ),
                         INCREMENT=_F(
                LIST_INST = L_INST,
                NUME_INST_FIN = 3),
                            NEWTON=_F(
                MATRICE = 'TANGENTE',
                REAC_ITER = 1),
                       CONVERGENCE=_F(
                RESI_GLOB_RELA = 1.E-6,
                ITER_GLOB_MAXI = 10),
                     RECH_LINEAIRE=_F(
                ITER_LINE_MAXI = 3,
                RESI_LINE_RELA = 1.E-5)
              )

U=STAT_NON_LINE( reuse=U,
                            MODELE=MODELE_1,
                        CHAM_MATER=CH_MAT_1,
                         CARA_ELEM=CARAC__1,EXCIT=(
                             _F(
                CHARGE = CINEMATI), _F(
                CHARGE = CHARGE_1,
                FONC_MULT = RAMPE)),
                         COMPORTEMENT=_F(
                RELATION = 'VMIS_ISOT_LINE',
                ITER_INTE_MAXI = 30,
               ),
                         ETAT_INIT=_F(
                EVOL_NOLI = U,
                NUME_ORDRE = 3),
                         INCREMENT=_F(
                LIST_INST = L_INST,
                NUME_INST_FIN = 10),
                            NEWTON=_F(
                MATRICE = 'TANGENTE',
                REAC_ITER = 1),
                       CONVERGENCE=_F(
                RESI_GLOB_RELA = 1.E-6,
                ITER_GLOB_MAXI = 10),
                     RECH_LINEAIRE=_F(
                ITER_LINE_MAXI = 3,
                RESI_LINE_RELA = 1.E-5)
              )

V=STAT_NON_LINE(
                            MODELE=MODELE_1,
                        CHAM_MATER=CH_MAT_1,
                         CARA_ELEM=CARAC__1,EXCIT=(
                             _F(
                CHARGE = CINEMATI), _F(
                CHARGE = CHARGE_2,
                FONC_MULT = RAMPE)),
                         COMPORTEMENT=_F(
                RELATION = 'VMIS_ISOT_LINE',
                ITER_INTE_MAXI = 30,
               ),
                         INCREMENT=_F(
                LIST_INST = L_INST,
                NUME_INST_FIN = 3),
                            NEWTON=_F(
                MATRICE = 'TANGENTE',
                REAC_ITER = 1),
                       CONVERGENCE=_F(
                RESI_GLOB_RELA = 1.E-6,
                ITER_GLOB_MAXI = 10),
                     RECH_LINEAIRE=_F(
                ITER_LINE_MAXI = 3,
                RESI_LINE_RELA = 1.E-5)
              )

V=STAT_NON_LINE( reuse=V,
                            MODELE=MODELE_1,
                        CHAM_MATER=CH_MAT_1,
                         CARA_ELEM=CARAC__1,EXCIT=(
                             _F(
                CHARGE = CINEMATI), _F(
                CHARGE = CHARGE_2,
                FONC_MULT = RAMPE)),
                         COMPORTEMENT=_F(
                RELATION = 'VMIS_ISOT_LINE',
                ITER_INTE_MAXI = 30,
               ),
                         ETAT_INIT=_F(
                EVOL_NOLI = U,
                NUME_ORDRE = 3),
                         INCREMENT=_F(
                LIST_INST = L_INST,
                NUME_INST_FIN = 10),
                            NEWTON=_F(
                MATRICE = 'TANGENTE',
                REAC_ITER = 1),
                       CONVERGENCE=_F(
                RESI_GLOB_RELA = 1.E-6,
                ITER_GLOB_MAXI = 10),
                     RECH_LINEAIRE=_F(
                ITER_LINE_MAXI = 3,
                RESI_LINE_RELA = 1.E-5)
              )

TEST_RESU(RESU=(_F(NUME_ORDRE=10,
                   GROUP_NO='X',
                   RESULTAT=U,
                   NOM_CHAM='DEPL',
                   NOM_CMP='DX',
                   VALE_CALC=0.027496802407144,
                   VALE_REFE=0.02743,
                   REFERENCE='NON_DEFINI',
                   PRECISION=1.E-2,),
                _F(NUME_ORDRE=10,
                   GROUP_NO='X',
                   RESULTAT=U,
                   NOM_CHAM='DEPL',
                   NOM_CMP='DY',
                   VALE_CALC=-0.28195986578293,
                   VALE_REFE=-0.28039999999999998,
                   REFERENCE='NON_DEFINI',
                   PRECISION=1.E-2,),
                ),
          )

TEST_RESU(RESU=(_F(NUME_ORDRE=10,
                   GROUP_NO='X',
                   RESULTAT=V,
                   NOM_CHAM='DEPL',
                   NOM_CMP='DX',
                   VALE_CALC=0.027496802995050,
                   VALE_REFE=0.02743,
                   REFERENCE='NON_DEFINI',
                   PRECISION=1.E-2,),
                _F(NUME_ORDRE=10,
                   GROUP_NO='X',
                   RESULTAT=V,
                   NOM_CHAM='DEPL',
                   NOM_CMP='DY',
                   VALE_CALC=-0.28195987273658,
                   VALE_REFE=-0.28039999999999998,
                   REFERENCE='NON_DEFINI',
                   PRECISION=1.E-2,),
                ),
          )

#---------------------------------------------------------------------
FIN()
#
#=======================================================================
