# TITRE BARREAU FISSURE AVEC X-FEM
# ======================================================================
# COPYRIGHT (C) 1991 - 2012  EDF R&D                  WWW.CODE-ASTER.ORG
# THIS PROGRAM IS FREE SOFTWARE; YOU CAN REDISTRIBUTE IT AND/OR MODIFY
# IT UNDER THE TERMS OF THE GNU GENERAL PUBLIC LICENSE AS PUBLISHED BY
# THE FREE SOFTWARE FOUNDATION; EITHER VERSION 2 OF THE LICENSE, OR
# (AT YOUR OPTION) ANY LATER VERSION.
#
# THIS PROGRAM IS DISTRIBUTED IN THE HOPE THAT IT WILL BE USEFUL, BUT
# WITHOUT ANY WARRANTY; WITHOUT EVEN THE IMPLIED WARRANTY OF
# MERCHANTABILITY OR FITNESS FOR A PARTICULAR PURPOSE. SEE THE GNU
# GENERAL PUBLIC LICENSE FOR MORE DETAILS.
#
# YOU SHOULD HAVE RECEIVED A COPY OF THE GNU GENERAL PUBLIC LICENSE
# ALONG WITH THIS PROGRAM; IF NOT, WRITE TO EDF R&D CODE_ASTER,
#    1 AVENUE DU GENERAL DE GAULLE, 92141 CLAMART CEDEX, FRANCE.
# ======================================================================

DEBUT(CODE=_F(NIV_PUB_WEB='INTERNET'),DEBUG=_F(SDVERI='OUI'))

MAILLAG1=LIRE_MAILLAGE(INFO=1,);

MAILLAG1=DEFI_GROUP(reuse =MAILLAG1,
                    MAILLAGE=MAILLAG1,
                    CREA_GROUP_NO=_F(GROUP_MA='VOL',),
                                   );
                                   
MAILLAG1=DEFI_GROUP(reuse =MAILLAG1,
                    MAILLAGE=MAILLAG1,
                    CREA_GROUP_NO=_F(NOM='VOLQUAD',
                                     GROUP_MA='VOL',),
                              );

MODELEIN=AFFE_MODELE(MAILLAGE=MAILLAG1,
                     AFFE=_F(GROUP_MA='VOL',
                             PHENOMENE='MECANIQUE',
                             MODELISATION='3D',),
                     );

delta=0.02

LN=FORMULE(NOM_PARA=('X','Y','Z'),VALE='-X+Y+Z-5.*delta');

FISS=DEFI_FISS_XFEM(MAILLAGE=MAILLAG1,
                    TYPE_DISCONTINUITE='INTERFACE',
                    DEFI_FISS=_F(FONC_LN=LN),);

MODELEK=MODI_MODELE_XFEM(MODELE_IN=MODELEIN,
                         CRITERE=1.1E-04,
                         FISSURE=FISS,
                         INFO=1,);

E=100.E6
nu=0.
ACIER=DEFI_MATERIAU(ELAS=_F(E=E,
                            NU=nu,
                            RHO=7800.0,),);

CHAMPMAT=AFFE_MATERIAU(MAILLAGE=MAILLAG1,
                       MODELE=MODELEK,
                       AFFE=_F(GROUP_MA='VOL',
                                MATER=ACIER,
                                ),);

DEPZ=1.E-6

CH1=AFFE_CHAR_MECA(MODELE=MODELEK,
                   DDL_IMPO=(_F(NOEUD=('N21','N22','N23','N24',),
                                DX=0.0,
                                DY=0.0,
                                DZ=0.0,),
                             _F(NOEUD=('N13','N14','N15','N16',),
                                DX=0.0,
                                DY=0.0,
                                DZ=DEPZ,),
                                ),
                  INFO=1,);


UTOT1=MECA_STATIQUE(MODELE=MODELEK,
                   CHAM_MATER=CHAMPMAT,
                   EXCIT=(_F(CHARGE=CH1),
                          
                          ),
                   INFO=1,
                   ); 

# -------------------------------------------------------------   
#            POST-TRAITEMENT POUR LA VISUALISATION X-FEM   
# -------------------------------------------------------------   

MA_XFEM=POST_MAIL_XFEM(
                       MODELE        = MODELEK,
                       INFO          = 2)

MOD_VISU=AFFE_MODELE(MAILLAGE=MA_XFEM,
                     AFFE=_F(TOUT='OUI',
                              PHENOMENE='MECANIQUE',
                              MODELISATION='3D',),) 

RES_XFEM=POST_CHAM_XFEM(MODELE_VISU   = MOD_VISU,
                        RESULTAT      = UTOT1,
                        
                        INFO          = 2)
 
#IMPR_RESU(FORMAT='GMSH',UNITE=81,RESU=_F(RESULTAT=RES_XFEM));


# -------------------------------------------------------------   
#            TEST_TABLE
# -------------------------------------------------------------   

DEP=POST_RELEVE_T(ACTION=_F(INTITULE='DEPLE',
                            GROUP_NO=('NFISSU',),
                            RESULTAT=RES_XFEM,
                            NOM_CHAM='DEPL',
                            NUME_ORDRE=1,
                            TOUT_CMP='OUI',
                            OPERATION='EXTRACTION',),);

#IMPR_TABLE(TABLE=DEP,);

DEP = CALC_TABLE(reuse = DEP,
                 TABLE = DEP,
                 ACTION = (_F(OPERATION = 'FILTRE',
                               NOM_PARA  = 'NOEUD',
                               CRIT_COMP = 'REGEXP',
                               VALE_K    = 'N[^M]',),),);

TEST_TABLE(CRITERE='RELATIF',
           REFERENCE='ANALYTIQUE',
           PRECISION=1.0000000000000001E-05,
           VALE_CALC= 9.99993494E-07,
           VALE_REFE=9.9999999999999995E-07,
           NOM_PARA='DZ',
           TYPE_TEST='MIN',
           TABLE=DEP,)

TEST_TABLE(CRITERE='RELATIF',
           REFERENCE='ANALYTIQUE',
           PRECISION=1.0000000000000001E-05,
           VALE_CALC= 1.00000397E-06,
           VALE_REFE=9.9999999999999995E-07,
           NOM_PARA='DZ',
           TYPE_TEST='MAX',
           TABLE=DEP,)

FIN();
