# TITRE BLOC DECOUPE PAR DEUX INTERFACES INTERSECTEES AVEC X-FEM
# ======================================================================
# COPYRIGHT (C) 1991 - 2013  EDF R&D                  WWW.CODE-ASTER.ORG
# THIS PROGRAM IS FREE SOFTWARE; YOU CAN REDISTRIBUTE IT AND/OR MODIFY
# IT UNDER THE TERMS OF THE GNU GENERAL PUBLIC LICENSE AS PUBLISHED BY
# THE FREE SOFTWARE FOUNDATION; EITHER VERSION 2 OF THE LICENSE, OR
# (AT YOUR OPTION) ANY LATER VERSION.
#
# THIS PROGRAM IS DISTRIBUTED IN THE HOPE THAT IT WILL BE USEFUL, BUT
# WITHOUT ANY WARRANTY; WITHOUT EVEN THE IMPLIED WARRANTY OF
# MERCHANTABILITY OR FITNESS FOR A PARTICULAR PURPOSE. SEE THE GNU
# GENERAL PUBLIC LICENSE FOR MORE DETAILS.
#
# YOU SHOULD HAVE RECEIVED A COPY OF THE GNU GENERAL PUBLIC LICENSE
# ALONG WITH THIS PROGRAM; IF NOT, WRITE TO EDF R&D CODE_ASTER,
#    1 AVENUE DU GENERAL DE GAULLE, 92141 CLAMART CEDEX, FRANCE.
# ======================================================================

# double jonction en X, 3D, TETRA4 avec contact

DEBUT(CODE=_F(NIV_PUB_WEB='INTERNET'),DEBUG=_F(SDVERI='OUI'));

MAILLAG=LIRE_MAILLAGE(FORMAT='MED',INFO=1);


# Re-orientation du maillage de peau
MAILLAG=MODI_MAILLAGE(reuse =MAILLAG,
                      MAILLAGE=MAILLAG,
                      ORIE_PEAU_3D=_F(GROUP_MA=('ENV')),
                      );

MAILLAG=DEFI_GROUP(reuse =MAILLAG,
                   MAILLAGE=MAILLAG,
                   CREA_GROUP_MA=(_F(NOM='FACE',
                                    OPTION='FACE_NORMALE',
                                    VECT_NORMALE=(0,0,1)),
                                  _F(NOM='SD1',
                                     OPTION='BANDE',
                                     POINT=(5,0,0),
                                     VECT_NORMALE=(1,0,0),
                                     DIST=0.1),
                                  _F(NOM='SD2',
                                    OPTION='FACE_NORMALE',
                                    VECT_NORMALE=(1,0,0)),
                                  _F(NOM='SD',
                                    INTERSEC=('SD1','SD2')),
                                  _F(NOM='SG1',
                                     OPTION='BANDE',
                                     POINT=(-5,0,0),
                                     VECT_NORMALE=(-1,0,0),
                                     DIST=0.1),
                                  _F(NOM='SG2',
                                    OPTION='FACE_NORMALE',
                                    VECT_NORMALE=(-1,0,0)),
                                  _F(NOM='SG',
                                    INTERSEC=('SG1','SG2')),
                                  _F(NOM='SH1',
                                     OPTION='BANDE',
                                     POINT=(0,5,0),
                                     VECT_NORMALE=(0,1,0),
                                     DIST=0.1),
                                  _F(NOM='SH2',
                                    OPTION='FACE_NORMALE',
                                    VECT_NORMALE=(0,1,0)),
                                  _F(NOM='SH',
                                    INTERSEC=('SH1','SH2')),
                                 _F(NOM='SB1',
                                     OPTION='BANDE',
                                     POINT=(0,-5,0),
                                     VECT_NORMALE=(0,-1,0),
                                     DIST=0.1),
                                  _F(NOM='SB2',
                                    OPTION='FACE_NORMALE',
                                    VECT_NORMALE=(0,-1,0)),
                                  _F(NOM='SB',
                                    INTERSEC=('SB1','SB2'))));

MODELEIN=AFFE_MODELE(MAILLAGE=MAILLAG,
                     AFFE=(_F(GROUP_MA=('VOLU','SH','SD'),
                              PHENOMENE='MECANIQUE',
                              MODELISATION='3D')));

LN1=FORMULE(NOM_PARA=('X','Y','Z'),VALE='Y');

FISS1=DEFI_FISS_XFEM(MAILLAGE=MAILLAG,
                    TYPE_DISCONTINUITE='INTERFACE',
                    DEFI_FISS=_F(FONC_LN=LN1),
                    INFO=1);

LN2=FORMULE(NOM_PARA=('X','Y','Z'),VALE='X');

FISS2=DEFI_FISS_XFEM(MAILLAGE=MAILLAG,
                    TYPE_DISCONTINUITE='INTERFACE',
                    DEFI_FISS=_F(FONC_LN=LN2),
                    JONCTION=_F(FISSURE=FISS1,POINT=(0,5,0)),
                    INFO=1);

FISS3=DEFI_FISS_XFEM(MAILLAGE=MAILLAG,
                    TYPE_DISCONTINUITE='INTERFACE',
                    DEFI_FISS=_F(FONC_LN=LN2),
                    JONCTION=_F(FISSURE=FISS1,POINT=(0,-5,0)),
                    INFO=1);

MODELEK=MODI_MODELE_XFEM(MODELE_IN=MODELEIN,
                         FISSURE=(FISS1,FISS2,FISS3),
                         CONTACT='STANDARD',
                         INFO=1);

CTXFEM = DEFI_CONTACT(MODELE         = MODELEK,
                      FORMULATION    = 'XFEM',
                      ITER_CONT_MAXI = 10,
                      REAC_GEOM = 'SANS',
                      #ELIM_ARETE='ELIM',
                      ZONE = (_F(
                                 INTEGRATION   = 'NOEUD',
                                 CONTACT_INIT  = 'OUI',
                                 GLISSIERE     = 'NON',
                                 FISS_MAIT     = FISS1,
                                 ALGO_LAGR     = 'VERSION2',
                                 ALGO_CONT     = 'PENALISATION',COEF_PENA_CONT = 1e13,
                              ),
                              _F(
                                 INTEGRATION   = 'NOEUD',
                                 CONTACT_INIT  = 'OUI',
                                 GLISSIERE     = 'NON',
                                 FISS_MAIT     = FISS2,
                                 ALGO_LAGR     = 'VERSION2',
                                 ALGO_CONT     = 'PENALISATION',COEF_PENA_CONT = 1e13,
                              ),
                             _F(
                                 INTEGRATION   = 'NOEUD',
                                 CONTACT_INIT  = 'OUI',
                                 GLISSIERE     = 'NON',
                                 FISS_MAIT     = FISS3,
                                 ALGO_LAGR     = 'VERSION2',
                                 ALGO_CONT     = 'PENALISATION',COEF_PENA_CONT = 1e13,
                              ),
                            ),
                    );

E=100.0E6
nu=0.3
ACIER=DEFI_MATERIAU(ELAS=_F(E=E,
                            NU=nu,
                            RHO=7800.0));

CHAMPMAT=AFFE_MATERIAU(MAILLAGE=MAILLAG,
                       MODELE=MODELEK,
                       AFFE=_F(TOUT=('OUI'),
                                MATER=ACIER,
                                ));

VAR1=DEFI_FONCTION(NOM_PARA='INST',
                    VALE=(0.,0.,1.,1.));

def pression(x) :
   if x < 0 : return 1E6
   return 2E6

PRES_H = FORMULE(VALE='pression(X)',
                  NOM_PARA=('X'));
PRES_D = FORMULE(VALE='pression(Y)',
                  NOM_PARA=('Y'));

CH1=AFFE_CHAR_MECA_F(MODELE=MODELEK,
                   PRES_REP=(_F(GROUP_MA='SH',PRES = PRES_H),
                             _F(GROUP_MA='SD',PRES = PRES_D)));

CH2=AFFE_CHAR_MECA(MODELE=MODELEK,
                   DDL_IMPO=(_F(GROUP_MA='SB',DY = 0,H1Y = 0),
                             _F(GROUP_MA='SG',DX = 0,H1X = 0),
                             _F(GROUP_MA='FACE',DZ = 0)));

L_INST=DEFI_LIST_REEL(DEBUT=0.0,
                      INTERVALLE=_F(JUSQU_A=1,
                                    NOMBRE=1));

UTOT1=STAT_NON_LINE(MODELE=MODELEK,
                   CHAM_MATER=CHAMPMAT,
                   CONTACT=CTXFEM,
                   EXCIT=(_F(CHARGE=CH1),
                          _F(CHARGE=CH2)),
                   COMPORTEMENT=(_F(RELATION='ELAS',
                                 GROUP_MA='VOLU')),
                   NEWTON=_F(REAC_INCR=1,REAC_ITER=1),
                   INCREMENT=_F(LIST_INST=L_INST),
                   CONVERGENCE=(_F(ITER_GLOB_MAXI=10,
                                  RESI_GLOB_MAXI=1E-6)),
                   SOLVEUR=_F(METHODE='MUMPS',NPREC=-1),
                   ARCHIVAGE=_F(CHAM_EXCLU='VARI_ELGA'),
                   INFO=1);

#-----------------------------------------------------------
#             POST-TRAITEMENT POUR LA VISUALISATION
#-----------------------------------------------------------

MA_XFEM=POST_MAIL_XFEM(MODELE=MODELEK);

MOD_VISU=AFFE_MODELE(MAILLAGE=MA_XFEM,
                     AFFE=_F(GROUP_MA='VOLU',
                     PHENOMENE='MECANIQUE',
                     MODELISATION='3D'))

RES_XFEM=POST_CHAM_XFEM(MODELE_VISU   = MOD_VISU,
                        RESULTAT      = UTOT1)

#----------------------------------------------
#                   POST RELEVE
#----------------------------------------------

DEP=POST_RELEVE_T(ACTION=_F(INTITULE='DEPLE',
                                 GROUP_NO=('NFISSU'),
                                 RESULTAT=RES_XFEM,
                                 NOM_CHAM='DEPL',
                                 NUME_ORDRE = 1,
                                 TOUT_CMP='OUI',
                                 OPERATION='EXTRACTION'));
DEP = CALC_TABLE(TABLE = DEP,
                 reuse = DEP,
                 ACTION =_F(OPERATION = 'EXTR',
                            NOM_PARA=('NOEUD','INST','COOR_X','COOR_Y','DX','DY','DZ')));

DEPP = CALC_TABLE(TABLE = DEP,
                     ACTION =(_F(OPERATION = 'FILTRE',
                                 NOM_PARA  = 'NOEUD',
                                 CRIT_COMP = 'REGEXP',
                                 VALE_K    = 'NP')));

DEPPGX = CALC_TABLE(TABLE = DEPP,
                      ACTION =_F(OPERATION = 'FILTRE',
                                 NOM_PARA  = 'COOR_X',
                                 CRIT_COMP = 'GT',
                                 VALE      =  0.02));
DEPPLX = CALC_TABLE(TABLE = DEPP,
                      ACTION =_F(OPERATION = 'FILTRE',
                                 NOM_PARA  = 'COOR_X',
                                 CRIT_COMP = 'LT',
                                 VALE      =  -0.02));
DEPPGY = CALC_TABLE(TABLE = DEPP,
                      ACTION =_F(OPERATION = 'FILTRE',
                                 NOM_PARA  = 'COOR_Y',
                                 CRIT_COMP = 'GT',
                                 VALE      =  0.02));
DEPPLY = CALC_TABLE(TABLE = DEPP,
                      ACTION =_F(OPERATION = 'FILTRE',
                                 NOM_PARA  = 'COOR_Y',
                                 CRIT_COMP = 'LT',
                                 VALE      =  -0.02));

DEPM = CALC_TABLE(TABLE = DEP,
                     ACTION =(_F(OPERATION = 'FILTRE',
                                 NOM_PARA  = 'NOEUD',
                                 CRIT_COMP = 'REGEXP',
                                 VALE_K    = 'NM')));
DEPMGX = CALC_TABLE(TABLE = DEPM,
                      ACTION =_F(OPERATION = 'FILTRE',
                                 NOM_PARA  = 'COOR_X',
                                 CRIT_COMP = 'GT',
                                 VALE      =  0.02));
DEPMLX = CALC_TABLE(TABLE = DEPM,
                      ACTION =_F(OPERATION = 'FILTRE',
                                 NOM_PARA  = 'COOR_X',
                                 CRIT_COMP = 'LT',
                                 VALE      =  -0.02));
DEPMGY = CALC_TABLE(TABLE = DEPM,
                      ACTION =_F(OPERATION = 'FILTRE',
                                 NOM_PARA  = 'COOR_Y',
                                 CRIT_COMP = 'GT',
                                 VALE      =  0.02));
DEPMLY = CALC_TABLE(TABLE = DEPM,
                      ACTION =_F(OPERATION = 'FILTRE',
                                 NOM_PARA  = 'COOR_Y',
                                 CRIT_COMP = 'LT',
                                 VALE      =  -0.02));

# Definition des zones

depl_y1 = FORMULE(NOM_PARA=('DY','COOR_Y'),
                 VALE='DY+(COOR_Y+5)/100');
depl_y2 = FORMULE(NOM_PARA=('DY','COOR_Y'),
                 VALE='DY+(COOR_Y+5)/50');
depl_x1 = FORMULE(NOM_PARA=('DX','COOR_X'),
                 VALE='DX+(COOR_X+5)/100');
depl_x2 = FORMULE(NOM_PARA=('DX','COOR_X'),
                 VALE='DX+(COOR_X+5)/50');

DEPZON=[None]*5
DEPZON[1] = CALC_TABLE(TABLE = DEPMGY,
                    ACTION =(_F(OPERATION = 'COMB',
                               TABLE=DEPPLX),
                            _F(OPERATION = 'OPER',
                                 NOM_PARA  = 'DY-DY',
                                 FORMULE = depl_y1),
                            _F(OPERATION = 'OPER',
                                 NOM_PARA  = 'DX-DX',
                                 FORMULE = depl_x2)));

DEPZON[3] = CALC_TABLE(TABLE = DEPPGX,
                    ACTION =(_F(OPERATION = 'COMB',
                               TABLE=DEPPGY),
                            _F(OPERATION = 'OPER',
                                 NOM_PARA  = 'DY-DY',
                                 FORMULE = depl_y2),
                            _F(OPERATION = 'OPER',
                                 NOM_PARA  = 'DX-DX',
                                 FORMULE = depl_x2)));

DEPZON[2] = CALC_TABLE(TABLE = DEPMLX,
                    ACTION =(_F(OPERATION = 'COMB',
                               TABLE=DEPMLY),
                            _F(OPERATION = 'OPER',
                                 NOM_PARA  = 'DY-DY',
                                 FORMULE = depl_y1),
                            _F(OPERATION = 'OPER',
                                 NOM_PARA  = 'DX-DX',
                                 FORMULE = depl_x1)));

DEPZON[4] = CALC_TABLE(TABLE = DEPPLY,
                    ACTION =(_F(OPERATION = 'COMB',
                               TABLE=DEPMGX),
                            _F(OPERATION = 'OPER',
                                 NOM_PARA  = 'DY-DY',
                                 FORMULE = depl_y2),
                            _F(OPERATION = 'OPER',
                                 NOM_PARA  = 'DX-DX',
                                 FORMULE = depl_x1)));

#----------------------------------------------
#                   TEST TABLE
#----------------------------------------------

preci = 0.05


for i in [1,2,3,4]: #Boucle sur les zones

  IMPR_TABLE(TABLE=DEPZON[i]);

  TEST_TABLE(TABLE=DEPZON[i],
             NOM_PARA='DX-DX',
             TYPE_TEST='MIN',
             VALE_CALC=0., VALE_REFE=0,
             CRITERE='ABSOLU',
             PRECISION=preci,
             REFERENCE='ANALYTIQUE',);
  TEST_TABLE(TABLE=DEPZON[i],
             NOM_PARA='DX-DX',
             TYPE_TEST='MAX',
             VALE_CALC=0., VALE_REFE=0,
             CRITERE='ABSOLU',
             PRECISION=preci,
             REFERENCE='ANALYTIQUE',);
  TEST_TABLE(TABLE=DEPZON[i],
             NOM_PARA='DY-DY',
             TYPE_TEST='MIN',
             VALE_CALC=0., VALE_REFE=0,
             CRITERE='ABSOLU',
             PRECISION=preci,
             REFERENCE='ANALYTIQUE',);
  TEST_TABLE(TABLE=DEPZON[i],
             NOM_PARA='DY-DY',
             TYPE_TEST='MAX',
             VALE_CALC=0., VALE_REFE=0,
             CRITERE='ABSOLU',
             PRECISION=preci,
             REFERENCE='ANALYTIQUE',);
  TEST_TABLE(TABLE=DEPZON[i],
             NOM_PARA='DZ',
             TYPE_TEST='MIN',
             VALE_CALC=0., VALE_REFE=0,
             CRITERE='ABSOLU',
             PRECISION=preci,
             REFERENCE='ANALYTIQUE');
  TEST_TABLE(TABLE=DEPZON[i],
             NOM_PARA='DZ',
             TYPE_TEST='MAX',
             VALE_CALC=0., VALE_REFE=0,
             CRITERE='ABSOLU',
             PRECISION=preci,
             REFERENCE='ANALYTIQUE');

FIN();
