# MODIF  DATE 09/04/2013   AUTEUR PELLET J.PELLET 
# TITRE BLOC AVEC INTERFACE EN CONTACT FROTTANT AVEC X-FEM
# ssnv195d.para = tps_job 60 mem_job 512Mo ncpus 1 liste_test S
#            CONFIGURATION MANAGEMENT OF EDF VERSION
# ======================================================================
# COPYRIGHT (C) 1991 - 2013  EDF R&D                  WWW.CODE-ASTER.ORG
# THIS PROGRAM IS FREE SOFTWARE; YOU CAN REDISTRIBUTE IT AND/OR MODIFY
# IT UNDER THE TERMS OF THE GNU GENERAL PUBLIC LICENSE AS PUBLISHED BY
# THE FREE SOFTWARE FOUNDATION; EITHER VERSION 2 OF THE LICENSE, OR
# (AT YOUR OPTION) ANY LATER VERSION.
#
# THIS PROGRAM IS DISTRIBUTED IN THE HOPE THAT IT WILL BE USEFUL, BUT
# WITHOUT ANY WARRANTY; WITHOUT EVEN THE IMPLIED WARRANTY OF
# MERCHANTABILITY OR FITNESS FOR A PARTICULAR PURPOSE. SEE THE GNU
# GENERAL PUBLIC LICENSE FOR MORE DETAILS.
#
# YOU SHOULD HAVE RECEIVED A COPY OF THE GNU GENERAL PUBLIC LICENSE
# ALONG WITH THIS PROGRAM; IF NOT, WRITE TO EDF R&D CODE_ASTER,
#    1 AVENUE DU GENERAL DE GAULLE, 92141 CLAMART CEDEX, FRANCE.
# ======================================================================

DEBUT(CODE=_F(NOM='SSNV195D', NIV_PUB_WEB='INTERNET'), DEBUG=_F(SDVERI='OUI'))

MAILLAG1=LIRE_MAILLAGE();

MAILLAG1=DEFI_GROUP(reuse =MAILLAG1,
                    MAILLAGE=MAILLAG1,
                    CREA_GROUP_NO=(_F(NOM='GXXXXXX_SURFQUAD',
                                     GROUP_MA='GXXXXXX_SURF'),
                _F(NOM='GXXXXXX_PMED',
                                      OPTION ='ENV_SPHERE',
                  POINT  = (0.0,25.0),
                  RAYON = 1E-3,
                                      PRECISION = 2E-3,
                  ),
                  _F(NOM='GXXXXXX_PHAU',
                     OPTION ='ENV_SPHERE',
                     POINT  = (0.0,50.0),
                     RAYON = 1E-3,
                     PRECISION = 2E-3,
                   ),
                  )
                 );

MAILLAG1=DEFI_GROUP(reuse =MAILLAG1,
                    MAILLAGE=MAILLAG1,
                CREA_GROUP_NO =(
                             _F(
                                NOM = 'GXXXXXX_LIGMED',
                                OPTION = 'PLAN',
                                GROUP_NO_CENTRE  = 'GXXXXXX_PMED',
                                VECT_NORMALE = (0.0,1.0),
                                PRECISION = 1E-3,
                                ),
                             _F(
                                NOM = 'GXXXXXX_LIGSUP',
                                OPTION = 'PLAN',
                                GROUP_NO_CENTRE  = 'GXXXXXX_PHAU',
                                VECT_NORMALE = (0.0,1.0),
                                PRECISION = 1E-3,
                                ),
                     )
                   );
MODELEIN=AFFE_MODELE(MAILLAGE=MAILLAG1,
                     AFFE=(_F(GROUP_MA=('GXXXXXX_SURF'),
                              PHENOMENE='MECANIQUE',
                              MODELISATION='D_PLAN',
                              ),
                           _F(GROUP_MA=('GXXXXXX_LIGINF'),
                              PHENOMENE='MECANIQUE',
                              MODELISATION='D_PLAN',
                              )));


LN1=FORMULE(NOM_PARA=('X','Y'),VALE='Y-12.5');

LN2=FORMULE(NOM_PARA=('X','Y'),VALE='Y-37.5');

FISS1=DEFI_FISS_XFEM(MODELE=MODELEIN,
                    TYPE_DISCONTINUITE='INTERFACE',
                    DEFI_FISS=_F(FONC_LN=LN1),
                    INFO=1);

FISS2=DEFI_FISS_XFEM(MODELE=MODELEIN,
                    TYPE_DISCONTINUITE='INTERFACE',
                    DEFI_FISS=_F(FONC_LN=LN2),
                    INFO=1);

MODELEK=MODI_MODELE_XFEM(MODELE_IN=MODELEIN,
                         FISSURE=(FISS1,FISS2),
                         INFO=1);

E=100.0E6
nu=0.0
ACIER=DEFI_MATERIAU(ELAS=_F(E=E,
                            NU=nu,
                            RHO=7800.0));

CHAMPMAT=AFFE_MATERIAU(MAILLAGE=MAILLAG1,
                       MODELE=MODELEK,
                       AFFE=_F(GROUP_MA=('GXXXXXX_SURF','GXXXXXX_LIGINF'),
                                MATER=ACIER,
                                ));

DEPX=1.E-3
DEPY=2.E-3
ZERO=0.0

CH1=AFFE_CHAR_MECA(MODELE=MODELEK,
                   DDL_IMPO=(_F(GROUP_MA='GXXXXXX_LIGINF',
                                          DX=0.0,
                                          DY=-DEPY),
                             _F(GROUP_NO='GXXXXXX_LIGSUP',
                                          DX=0.0,
                                          DY=DEPY),
                  _F(GROUP_NO='GXXXXXX_LIGMED',
                                          DX=0.0,
                                          DY=0.0)),
                    INFO=1);


UTOT1=MECA_STATIQUE(MODELE=MODELEK,
                   CHAM_MATER=CHAMPMAT,
                   EXCIT=(
                          _F(CHARGE=CH1),
                          ),
                   SOLVEUR=_F(
                            METHODE='MUMPS'),
                   INFO=2,
                   );

# -------------------------------------------------------------
#            POST-TRAITEMENT POUR LA VISUALISATION X-FEM
# -------------------------------------------------------------

MA_XFEM=POST_MAIL_XFEM(
                       MODELE        = MODELEK,
                       INFO          = 2)

MOD_VISU=AFFE_MODELE(MAILLAGE=MA_XFEM,
                     AFFE=_F(TOUT='OUI',
                              PHENOMENE='MECANIQUE',
                              MODELISATION='D_PLAN'))

RES_XFEM=POST_CHAM_XFEM(MODELE_VISU   = MOD_VISU,
                        RESULTAT      = UTOT1,

                        INFO          = 2)

#IMPR_RESU(FORMAT='GMSH',UNITE=81,RESU=_F(RESULTAT=RES_XFEM));

# -------------------------------------------------------------
#            TEST_TABLE
# -------------------------------------------------------------


DEP=POST_RELEVE_T(ACTION=_F(INTITULE='DEPLE',
                                GROUP_NO=('NFISSU'),
                                RESULTAT=RES_XFEM,
                                NOM_CHAM='DEPL',
                                NUME_ORDRE=1,
                                TOUT_CMP='OUI',
                                OPERATION='EXTRACTION'));

IMPR_TABLE(TABLE=DEP,
           FORMAT='AGRAF',
           FORMAT_R='1PE12.5',
           IMPR_FONCTION='NON');

# POUR LES DEUX FISSURES

TEST_TABLE(CRITERE='ABSOLU',
           REFERENCE='ANALYTIQUE',
           PRECISION=9.9999999999999998E-17,
           VALE_CALC=-6.7352452462954468E-18,
           VALE_REFE=0.0,
           TOLE_MACHINE=9.9999999999999998E-17,
           NOM_PARA='DX',
           TYPE_TEST='MIN',
           TABLE=DEP,)

TEST_TABLE(CRITERE='ABSOLU',
           REFERENCE='ANALYTIQUE',
           PRECISION=9.9999999999999998E-17,
           VALE_CALC= 8.3278406691871501E-18,
           VALE_REFE=0.0,
           TOLE_MACHINE=9.9999999999999998E-17,
           NOM_PARA='DX',
           TYPE_TEST='MAX',
           TABLE=DEP,)

# POUR LA PREMIERE FISSURE

DEP1P = CALC_TABLE(TABLE = DEP,
                  ACTION = (_F(OPERATION = 'FILTRE',
                               NOM_PARA  = 'NOEUD',
                               CRIT_COMP = 'REGEXP',
                               VALE_K    = 'N[^P]'),
                            _F(OPERATION = 'FILTRE',
                               NOM_PARA  = 'COOR_Y',
                               CRIT_COMP = 'LT',
                               VALE      = 25)));

TEST_TABLE(CRITERE='RELATIF',
           REFERENCE='ANALYTIQUE',
           PRECISION=9.9999999999999994E-12,
           VALE_CALC=-2.00000000000E-03,
           VALE_REFE=-2.E-3,
           TOLE_MACHINE=9.9999999999999994E-12,
           NOM_PARA='DY',
           TYPE_TEST='MIN',
           TABLE=DEP1P,)

TEST_TABLE(CRITERE='RELATIF',
           REFERENCE='ANALYTIQUE',
           PRECISION=9.9999999999999994E-12,
           VALE_CALC=-2.00000000000E-03,
           VALE_REFE=-2.E-3,
           TOLE_MACHINE=9.9999999999999994E-12,
           NOM_PARA='DY',
           TYPE_TEST='MAX',
           TABLE=DEP1P,)

DEP1M = CALC_TABLE(TABLE = DEP,
                  ACTION = (_F(OPERATION = 'FILTRE',
                               NOM_PARA  = 'NOEUD',
                               CRIT_COMP = 'REGEXP',
                               VALE_K    = 'N[^M]'),
                            _F(OPERATION = 'FILTRE',
                               NOM_PARA  = 'COOR_Y',
                               CRIT_COMP = 'LT',
                               VALE      = 25)));

TEST_TABLE(CRITERE='ABSOLU',
           REFERENCE='ANALYTIQUE',
           PRECISION=9.9999999999999998E-17,
           VALE_CALC=-1.5178830414797062E-18,
           VALE_REFE=0.0,
           TOLE_MACHINE=9.9999999999999998E-17,
           NOM_PARA='DY',
           TYPE_TEST='MIN',
           TABLE=DEP1M,)

TEST_TABLE(CRITERE='ABSOLU',
           REFERENCE='ANALYTIQUE',
           PRECISION=9.9999999999999998E-17,
           VALE_CALC= 2.3852447794681098E-18,
           VALE_REFE=0.0,
           TOLE_MACHINE=9.9999999999999998E-17,
           NOM_PARA='DY',
           TYPE_TEST='MAX',
           TABLE=DEP1M,)

# POUR LA DEUXIEME FISSURE

DEP2P = CALC_TABLE(TABLE = DEP,
                  ACTION = (_F(OPERATION = 'FILTRE',
                               NOM_PARA  = 'NOEUD',
                               CRIT_COMP = 'REGEXP',
                               VALE_K    = 'N[^P]'),
                            _F(OPERATION = 'FILTRE',
                               NOM_PARA  = 'COOR_Y',
                               CRIT_COMP = 'GT',
                               VALE      = 25)));

TEST_TABLE(CRITERE='ABSOLU',
           REFERENCE='ANALYTIQUE',
           PRECISION=9.9999999999999998E-17,
           VALE_CALC=-1.4094628242311558E-18,
           VALE_REFE=0.0,
           TOLE_MACHINE=9.9999999999999998E-17,
           NOM_PARA='DY',
           TYPE_TEST='MIN',
           TABLE=DEP2P,)

TEST_TABLE(CRITERE='ABSOLU',
           REFERENCE='ANALYTIQUE',
           PRECISION=9.9999999999999998E-17,
           VALE_CALC= 1.7347234759768071E-18,
           VALE_REFE=0.0,
           TOLE_MACHINE=9.9999999999999998E-17,
           NOM_PARA='DY',
           TYPE_TEST='MAX',
           TABLE=DEP2P,)

DEP2M = CALC_TABLE(TABLE = DEP,
                  ACTION = (_F(OPERATION = 'FILTRE',
                               NOM_PARA  = 'NOEUD',
                               CRIT_COMP = 'REGEXP',
                               VALE_K    = 'N[^M]'),
                            _F(OPERATION = 'FILTRE',
                               NOM_PARA  = 'COOR_Y',
                               CRIT_COMP = 'GT',
                               VALE      = 25)));

TEST_TABLE(CRITERE='RELATIF',
           REFERENCE='ANALYTIQUE',
           PRECISION=9.9999999999999994E-12,
           VALE_CALC= 2.00000000000E-03,
           VALE_REFE=2.E-3,
           TOLE_MACHINE=9.9999999999999994E-12,
           NOM_PARA='DY',
           TYPE_TEST='MIN',
           TABLE=DEP2M,)

TEST_TABLE(CRITERE='RELATIF',
           REFERENCE='ANALYTIQUE',
           PRECISION=9.9999999999999994E-12,
           VALE_CALC= 2.00000000000E-03,
           VALE_REFE=2.E-3,
           TOLE_MACHINE=9.9999999999999994E-12,
           NOM_PARA='DY',
           TYPE_TEST='MAX',
           TABLE=DEP2M,)

FIN();
