# TITRE CYLINDRE SOUMIS A CHOC THERMIQUE ET CHARGEMENT MECANIQUE
# ======================================================================
# COPYRIGHT (C) 1991 - 2012  EDF R&D                  WWW.CODE-ASTER.ORG
# THIS PROGRAM IS FREE SOFTWARE; YOU CAN REDISTRIBUTE IT AND/OR MODIFY
# IT UNDER THE TERMS OF THE GNU GENERAL PUBLIC LICENSE AS PUBLISHED BY
# THE FREE SOFTWARE FOUNDATION; EITHER VERSION 2 OF THE LICENSE, OR
# (AT YOUR OPTION) ANY LATER VERSION.
#
# THIS PROGRAM IS DISTRIBUTED IN THE HOPE THAT IT WILL BE USEFUL, BUT
# WITHOUT ANY WARRANTY; WITHOUT EVEN THE IMPLIED WARRANTY OF
# MERCHANTABILITY OR FITNESS FOR A PARTICULAR PURPOSE. SEE THE GNU
# GENERAL PUBLIC LICENSE FOR MORE DETAILS.
#
# YOU SHOULD HAVE RECEIVED A COPY OF THE GNU GENERAL PUBLIC LICENSE
# ALONG WITH THIS PROGRAM; IF NOT, WRITE TO EDF R&D CODE_ASTER,
#    1 AVENUE DU GENERAL DE GAULLE, 92141 CLAMART CEDEX, FRANCE.
# ======================================================================
#
#ELEMENTS TRIA6  ET SEG3  POUR APPLICATION DU FLUX
#.....................................................................

DEBUT(   CODE=_F(NIV_PUB_WEB='INTERNET'))

MAYA=LIRE_MAILLAGE(FORMAT='MED', )

MODEL=AFFE_MODELE(    MAILLAGE=MAYA,
                                
                                 AFFE=_F(  TOUT = 'OUI',
                                        PHENOMENE = 'THERMIQUE',
                                        MODELISATION = 'AXIS')
                         )

ACIER=DEFI_MATERIAU(         THER=_F(  RHO_CP = 3552720.,
                                      LAMBDA = 72.)
                      )

MATER=AFFE_MATERIAU(   MAILLAGE=MAYA,
                                AFFE=_F(  TOUT = 'OUI',
                                       MATER = ACIER)
                         )

FLUX_FO=DEFI_FONCTION(       NOM_PARA='INST',
                             PROL_DROITE='EXCLU',
                            PROL_GAUCHE='EXCLU',
                                   VALE=( 0.,      300000.,
                                          100.,    300000.,  )
                        )

CHA=AFFE_CHAR_THER_F(      MODELE=MODEL,
                             FLUX_REP=_F(  GROUP_MA = 'FACE_INT',
                                        FLUN = FLUX_FO)
                         )

CAT=DEFI_LIST_REEL(    DEBUT=0.0,
                          INTERVALLE=_F(  JUSQU_A = 25.,    NOMBRE = 50)
                      )

THERL=THER_LINEAIRE(        MODELE=MODEL,
                           CHAM_MATER=MATER,
                                EXCIT=_F( CHARGE = CHA),
                            ETAT_INIT=_F( VALE = 0.),
                            INCREMENT=_F( LIST_INST = CAT),
                           PARM_THETA=1.
                       )

TEST_RESU(RESU=(_F(NUME_ORDRE=1,
                   RESULTAT=THERL,
                   NOM_CHAM='TEMP',
                   NOEUD='NO000001',
                   NOM_CMP='TEMP',
                   VALE_CALC=12.535751047,
                   VALE_REFE=12.535500000000001,
                   REFERENCE='NON_DEFINI',
                   CRITERE='RELATIF',
                   PRECISION=0.050000000000000003,),
                _F(NUME_ORDRE=1,
                   RESULTAT=THERL,
                   NOM_CHAM='TEMP',
                   NOEUD='NO000161',
                   NOM_CMP='TEMP',
                   VALE_CALC=5.712247784,
                   VALE_REFE=5.7123299999999997,
                   REFERENCE='NON_DEFINI',
                   CRITERE='RELATIF',
                   PRECISION=0.050000000000000003,),
                _F(NUME_ORDRE=1,
                   RESULTAT=THERL,
                   NOM_CHAM='TEMP',
                   NOEUD='NO000162',
                   NOM_CMP='TEMP',
                   VALE_CALC=2.445310640,
                   VALE_REFE=2.4452600000000002,
                   REFERENCE='NON_DEFINI',
                   CRITERE='RELATIF',
                   PRECISION=0.050000000000000003,),
                _F(NUME_ORDRE=1,
                   RESULTAT=THERL,
                   NOM_CHAM='TEMP',
                   NOEUD='NO000163',
                   NOM_CMP='TEMP',
                   VALE_CALC=1.121879446,
                   VALE_REFE=1.1218900000000001,
                   REFERENCE='NON_DEFINI',
                   CRITERE='RELATIF',
                   PRECISION=0.050000000000000003,),
                _F(NUME_ORDRE=1,
                   RESULTAT=THERL,
                   NOM_CHAM='TEMP',
                   NOEUD='NO000164',
                   NOM_CMP='TEMP',
                   VALE_CALC=0.483654859,
                   VALE_REFE=0.48364400000000002,
                   REFERENCE='NON_DEFINI',
                   CRITERE='RELATIF',
                   PRECISION=0.050000000000000003,),
                _F(NUME_ORDRE=1,
                   RESULTAT=THERL,
                   NOM_CHAM='TEMP',
                   NOEUD='NO000165',
                   NOM_CMP='TEMP',
                   VALE_CALC=0.222443037,
                   VALE_REFE=0.222443,
                   REFERENCE='NON_DEFINI',
                   CRITERE='RELATIF',
                   PRECISION=0.050000000000000003,),
                _F(NUME_ORDRE=1,
                   RESULTAT=THERL,
                   NOM_CHAM='TEMP',
                   NOEUD='NO000166',
                   NOM_CMP='TEMP',
                   VALE_CALC=0.096205964,
                   VALE_REFE=0.0962036,
                   REFERENCE='NON_DEFINI',
                   CRITERE='RELATIF',
                   PRECISION=0.050000000000000003,),
                _F(NUME_ORDRE=1,
                   RESULTAT=THERL,
                   NOM_CHAM='TEMP',
                   NOEUD='NO000167',
                   NOM_CMP='TEMP',
                   VALE_CALC=0.044344492,
                   VALE_REFE=0.044344399999999999,
                   REFERENCE='NON_DEFINI',
                   CRITERE='RELATIF',
                   PRECISION=0.050000000000000003,),
                _F(NUME_ORDRE=1,
                   RESULTAT=THERL,
                   NOM_CHAM='TEMP',
                   NOEUD='NO000168',
                   NOM_CMP='TEMP',
                   VALE_CALC=0.019231456,
                   VALE_REFE=0.019231000000000002,
                   REFERENCE='NON_DEFINI',
                   CRITERE='RELATIF',
                   PRECISION=0.050000000000000003,),
                _F(NUME_ORDRE=1,
                   RESULTAT=THERL,
                   NOM_CHAM='TEMP',
                   NOEUD='NO000169',
                   NOM_CMP='TEMP',
                   VALE_CALC= 8.87979724E-03,
                   VALE_REFE=8.8797600000000004E-3,
                   REFERENCE='NON_DEFINI',
                   CRITERE='RELATIF',
                   PRECISION=0.050000000000000003,),
                _F(NUME_ORDRE=1,
                   RESULTAT=THERL,
                   NOM_CHAM='TEMP',
                   NOEUD='NO000170',
                   NOM_CMP='TEMP',
                   VALE_CALC= 3.85970401E-03,
                   VALE_REFE=3.8595999999999999E-3,
                   REFERENCE='NON_DEFINI',
                   CRITERE='RELATIF',
                   PRECISION=0.050000000000000003,),
                _F(NUME_ORDRE=1,
                   RESULTAT=THERL,
                   NOM_CHAM='TEMP',
                   NOEUD='NO000171',
                   NOM_CMP='TEMP',
                   VALE_CALC= 1.78525216E-03,
                   VALE_REFE=1.78524E-3,
                   REFERENCE='NON_DEFINI',
                   CRITERE='RELATIF',
                   PRECISION=0.050000000000000003,),
                _F(NUME_ORDRE=1,
                   RESULTAT=THERL,
                   NOM_CHAM='TEMP',
                   NOEUD='NO000172',
                   NOM_CMP='TEMP',
                   VALE_CALC= 7.78669075E-04,
                   VALE_REFE=7.7864999999999998E-4,
                   REFERENCE='NON_DEFINI',
                   CRITERE='RELATIF',
                   PRECISION=0.050000000000000003,),
                _F(NUME_ORDRE=1,
                   RESULTAT=THERL,
                   NOM_CHAM='TEMP',
                   NOEUD='NO000173',
                   NOM_CMP='TEMP',
                   VALE_CALC= 3.63116885E-04,
                   VALE_REFE=3.6311399999999999E-4,
                   REFERENCE='NON_DEFINI',
                   CRITERE='RELATIF',
                   PRECISION=0.050000000000000003,),
                _F(NUME_ORDRE=1,
                   RESULTAT=THERL,
                   NOM_CHAM='TEMP',
                   NOEUD='NO000174',
                   NOM_CMP='TEMP',
                   VALE_CALC= 1.64451736E-04,
                   VALE_REFE=1.6444800000000001E-4,
                   REFERENCE='NON_DEFINI',
                   CRITERE='RELATIF',
                   PRECISION=0.050000000000000003,),
                _F(NUME_ORDRE=1,
                   RESULTAT=THERL,
                   NOM_CHAM='TEMP',
                   NOEUD='NO000175',
                   NOM_CMP='TEMP',
                   VALE_CALC= 8.80583094E-05,
                   VALE_REFE=8.8057699999999995E-05,
                   REFERENCE='NON_DEFINI',
                   CRITERE='RELATIF',
                   PRECISION=0.050000000000000003,),
                _F(NUME_ORDRE=1,
                   RESULTAT=THERL,
                   NOM_CHAM='TEMP',
                   NOEUD='NO000014',
                   NOM_CMP='TEMP',
                   VALE_CALC= 6.54918747E-05,
                   VALE_REFE=6.5490399999999999E-05,
                   REFERENCE='NON_DEFINI',
                   CRITERE='RELATIF',
                   PRECISION=0.050000000000000003,),
                _F(NUME_ORDRE=50,
                   RESULTAT=THERL,
                   NOM_CHAM='TEMP',
                   NOEUD='NO000001',
                   NOM_CMP='TEMP',
                   VALE_CALC=86.426728999,
                   VALE_REFE=86.426699999999997,
                   REFERENCE='NON_DEFINI',
                   CRITERE='RELATIF',
                   PRECISION=0.050000000000000003,),
                _F(NUME_ORDRE=50,
                   RESULTAT=THERL,
                   NOM_CHAM='TEMP',
                   NOEUD='NO000161',
                   NOM_CMP='TEMP',
                   VALE_CALC=76.569495035,
                   VALE_REFE=76.569500000000005,
                   REFERENCE='NON_DEFINI',
                   CRITERE='RELATIF',
                   PRECISION=0.050000000000000003,),
                _F(NUME_ORDRE=50,
                   RESULTAT=THERL,
                   NOM_CHAM='TEMP',
                   NOEUD='NO000162',
                   NOM_CMP='TEMP',
                   VALE_CALC=67.735533702,
                   VALE_REFE=67.735500000000002,
                   REFERENCE='NON_DEFINI',
                   CRITERE='RELATIF',
                   PRECISION=0.050000000000000003,),
                _F(NUME_ORDRE=50,
                   RESULTAT=THERL,
                   NOM_CHAM='TEMP',
                   NOEUD='NO000163',
                   NOM_CMP='TEMP',
                   VALE_CALC=59.861048507,
                   VALE_REFE=59.860999999999997,
                   REFERENCE='NON_DEFINI',
                   CRITERE='RELATIF',
                   PRECISION=0.050000000000000003,),
                _F(NUME_ORDRE=50,
                   RESULTAT=THERL,
                   NOM_CHAM='TEMP',
                   NOEUD='NO000164',
                   NOM_CMP='TEMP',
                   VALE_CALC=52.847584676,
                   VALE_REFE=52.8476,
                   REFERENCE='NON_DEFINI',
                   CRITERE='RELATIF',
                   PRECISION=0.050000000000000003,),
                _F(NUME_ORDRE=50,
                   RESULTAT=THERL,
                   NOM_CHAM='TEMP',
                   NOEUD='NO000165',
                   NOM_CMP='TEMP',
                   VALE_CALC=46.646180939,
                   VALE_REFE=46.6462,
                   REFERENCE='NON_DEFINI',
                   CRITERE='RELATIF',
                   PRECISION=0.050000000000000003,),
                _F(NUME_ORDRE=50,
                   RESULTAT=THERL,
                   NOM_CHAM='TEMP',
                   NOEUD='NO000166',
                   NOM_CMP='TEMP',
                   VALE_CALC=41.180106009,
                   VALE_REFE=41.180100000000003,
                   REFERENCE='NON_DEFINI',
                   CRITERE='RELATIF',
                   PRECISION=0.050000000000000003,),
                _F(NUME_ORDRE=50,
                   RESULTAT=THERL,
                   NOM_CHAM='TEMP',
                   NOEUD='NO000167',
                   NOM_CMP='TEMP',
                   VALE_CALC=36.410609844,
                   VALE_REFE=36.410600000000002,
                   REFERENCE='NON_DEFINI',
                   CRITERE='RELATIF',
                   PRECISION=0.050000000000000003,),
                _F(NUME_ORDRE=50,
                   RESULTAT=THERL,
                   NOM_CHAM='TEMP',
                   NOEUD='NO000168',
                   NOM_CMP='TEMP',
                   VALE_CALC=32.276541297,
                   VALE_REFE=32.276499999999999,
                   REFERENCE='NON_DEFINI',
                   CRITERE='RELATIF',
                   PRECISION=0.050000000000000003,),
                _F(NUME_ORDRE=50,
                   RESULTAT=THERL,
                   NOM_CHAM='TEMP',
                   NOEUD='NO000169',
                   NOM_CMP='TEMP',
                   VALE_CALC=28.746756091,
                   VALE_REFE=28.7468,
                   REFERENCE='NON_DEFINI',
                   CRITERE='RELATIF',
                   PRECISION=0.050000000000000003,),
                _F(NUME_ORDRE=50,
                   RESULTAT=THERL,
                   NOM_CHAM='TEMP',
                   NOEUD='NO000170',
                   NOM_CMP='TEMP',
                   VALE_CALC=25.772296822,
                   VALE_REFE=25.772300000000001,
                   REFERENCE='NON_DEFINI',
                   CRITERE='RELATIF',
                   PRECISION=0.050000000000000003,),
                _F(NUME_ORDRE=50,
                   RESULTAT=THERL,
                   NOM_CHAM='TEMP',
                   NOEUD='NO000171',
                   NOM_CMP='TEMP',
                   VALE_CALC=23.328271442,
                   VALE_REFE=23.328299999999999,
                   REFERENCE='NON_DEFINI',
                   CRITERE='RELATIF',
                   PRECISION=0.050000000000000003,),
                _F(NUME_ORDRE=50,
                   RESULTAT=THERL,
                   NOM_CHAM='TEMP',
                   NOEUD='NO000172',
                   NOM_CMP='TEMP',
                   VALE_CALC=21.376083247,
                   VALE_REFE=21.376100000000001,
                   REFERENCE='NON_DEFINI',
                   CRITERE='RELATIF',
                   PRECISION=0.050000000000000003,),
                _F(NUME_ORDRE=50,
                   RESULTAT=THERL,
                   NOM_CHAM='TEMP',
                   NOEUD='NO000173',
                   NOM_CMP='TEMP',
                   VALE_CALC=19.896321695,
                   VALE_REFE=19.8963,
                   REFERENCE='NON_DEFINI',
                   CRITERE='RELATIF',
                   PRECISION=0.050000000000000003,),
                _F(NUME_ORDRE=50,
                   RESULTAT=THERL,
                   NOM_CHAM='TEMP',
                   NOEUD='NO000174',
                   NOM_CMP='TEMP',
                   VALE_CALC=18.859581446,
                   VALE_REFE=18.8596,
                   REFERENCE='NON_DEFINI',
                   CRITERE='RELATIF',
                   PRECISION=0.050000000000000003,),
                _F(NUME_ORDRE=50,
                   RESULTAT=THERL,
                   NOM_CHAM='TEMP',
                   NOEUD='NO000175',
                   NOM_CMP='TEMP',
                   VALE_CALC=18.251410594,
                   VALE_REFE=18.2514,
                   REFERENCE='NON_DEFINI',
                   CRITERE='RELATIF',
                   PRECISION=0.050000000000000003,),
                _F(NUME_ORDRE=50,
                   RESULTAT=THERL,
                   NOM_CHAM='TEMP',
                   NOEUD='NO000014',
                   NOM_CMP='TEMP',
                   VALE_CALC=18.050659065,
                   VALE_REFE=18.050699999999999,
                   REFERENCE='NON_DEFINI',
                   CRITERE='RELATIF',
                   PRECISION=0.050000000000000003,),
                ),
          )

MODEL2=AFFE_MODELE(    MAILLAGE=MAYA,
                                
                                 AFFE=_F(  TOUT = 'OUI',
                                        PHENOMENE = 'MECANIQUE',
                                        MODELISATION = 'AXIS')
                         )

#E_FO=DEFI_FONCTION(       NOM_PARA='TEMP',
#                                VALE=( 0.,     195.E9,
#                                       100.,   175.5E9,    )
#                     )
E_FO = FORMULE(NOM_PARA='TEMP',VALE='''
        195.E9 + ( TEMP * ( 175.5E9 - 195.E9 ) / 100. )
                    ''')

NU_FO=DEFI_FONCTION(       NOM_PARA='TEMP',
                                 VALE=( 0.,     0.3,
                                       100.,    0.3,   )
                     )

ALPHA_FO=DEFI_FONCTION(       NOM_PARA='TEMP',
                                    VALE=( 0.,     12.E-6,
                                          100.,    12.E-6,   )
                     )
#
#ET_FO=DEFI_FONCTION(       NOM_PARA='TEMP',
#                                 VALE=( 0.,     2857.504E6,
#                                        100.,   1979.695E6, )
#                     )
ET_FO = FORMULE(NOM_PARA='TEMP',VALE='''
        2857.504E6 + ( TEMP * ( 1979.695E6 - 2857.504E6 ) / 100. )
                    ''')
#
#SY_FO=DEFI_FONCTION(       NOM_PARA='TEMP',
#                                 VALE=( 0.,     181.E6,
#                                        100.,   145.E6,     )
#                     )
SY_FO = FORMULE(NOM_PARA='TEMP',VALE='''
        181.E6 + ( TEMP * ( 145.E6 - 181.E6 ) / 100. )
                    ''')

MAT2=DEFI_MATERIAU(      ELAS_FO=_F(  E = E_FO,
                                         NU = NU_FO,
                                         RHO = 7860.,
                                         ALPHA = ALPHA_FO,TEMP_DEF_ALPHA=0.),
                          ECRO_LINE_FO=_F(  D_SIGM_EPSI = ET_FO,
                                         SY = SY_FO)
                          )

MATER2=AFFE_MATERIAU(   MAILLAGE=MAYA,
                                AFFE=_F(  TOUT = 'OUI',
                                       MATER = MAT2),
                                AFFE_VARC=_F(TOUT='OUI',VALE_REF=0.,
                                       NOM_VARC='TEMP',
                                       EVOL=THERL,
                                       NOM_CHAM='TEMP',),
                         )

PRES_FO=DEFI_FONCTION(       NOM_PARA='INST',
                             PROL_DROITE='EXCLU',
                            PROL_GAUCHE='EXCLU',
                                   VALE=( 0.,      0.,
                                          15.,     0.,
                                          20.,     1.,
                                          25.,     0.,       )
                        )


ROTA=AFFE_CHAR_MECA(        MODELE=MODEL2,
                             ROTATION=_F( VITESSE = 2400.,
                                          AXE = (0.,1.,),),
                         );

ROTA_FO=DEFI_FONCTION(       NOM_PARA='INST',
                             PROL_DROITE='EXCLU',
                            PROL_GAUCHE='EXCLU',
                                   VALE=( 0.0,   0.0,
                                         15.,    1.0,
                                         25.,    1.0,   )
                        )

PRES=AFFE_CHAR_MECA(      MODELE=MODEL2,
                           PRES_REP=_F(  GROUP_MA = 'FACE_INT',
                                      PRES = 5.5E6)
                        )

CONDLIM=AFFE_CHAR_MECA(     MODELE=MODEL2,

                                DDL_IMPO=_F(  NOEUD = 'NO000001', DY = 0.)
                          )

CAT2=DEFI_LIST_REEL(    DEBUT=0.0,INTERVALLE=(
                          _F(  JUSQU_A = 15.,    NOMBRE = 3),
                                     _F(  JUSQU_A = 20.,    NOMBRE = 1),
                                     _F(  JUSQU_A = 25.,    NOMBRE = 1))
                      )

CALCNL=STAT_NON_LINE(
                            MODELE=MODEL2,
                        CHAM_MATER=MATER2,
                         COMPORTEMENT=_F(
                RELATION = 'VMIS_ISOT_LINE',
                DEFORMATION = 'PETIT_REAC'),
                         INCREMENT=_F(
                LIST_INST = CAT2),
                            NEWTON=_F(
                MATRICE = 'TANGENTE',
                REAC_ITER = 1),
                       CONVERGENCE=_F(
                RESI_GLOB_RELA = 1.E-6,
                ITER_GLOB_MAXI = 50),EXCIT=(
                              _F(
                CHARGE = PRES,
                FONC_MULT = PRES_FO), _F(
                CHARGE = ROTA,
                FONC_MULT = ROTA_FO), _F(
                CHARGE = CONDLIM)),
                     RECH_LINEAIRE=_F(
                ITER_LINE_MAXI = 3)
              )

CALCNL=CALC_CHAMP(reuse=CALCNL,CONTRAINTE=('SIGM_ELNO'),VARI_INTERNE=('VARI_ELNO'),RESULTAT=CALCNL)


CALCNL=CALC_CHAMP( reuse=CALCNL,   RESULTAT=CALCNL,
                                FORCE='FORC_NODA',
                   )

TEST_RESU(RESU=(_F(NUME_ORDRE=3,
                   RESULTAT=CALCNL,
                   NOM_CHAM='SIGM_ELNO',
                   NOEUD='NO000222',
                   NOM_CMP='SIZZ',
                   VALE_CALC= 1.20054420E+08,
                   VALE_REFE=1.20472000E8,
                   REFERENCE='NON_DEFINI',
                   CRITERE='RELATIF',
                   PRECISION=0.050000000000000003,
                   MAILLE='MA000090',),
                _F(NUME_ORDRE=3,
                   RESULTAT=CALCNL,
                   NOM_CHAM='SIGM_ELNO',
                   NOEUD='NO000164',
                   NOM_CMP='SIZZ',
                   VALE_CALC= 1.66184663E+08,
                   VALE_REFE=1.65934000E8,
                   REFERENCE='NON_DEFINI',
                   CRITERE='RELATIF',
                   PRECISION=0.050000000000000003,
                   MAILLE='MA000101',),
                _F(NUME_ORDRE=4,
                   RESULTAT=CALCNL,
                   NOM_CHAM='SIGM_ELNO',
                   NOEUD='NO000222',
                   NOM_CMP='SIZZ',
                   VALE_CALC= 1.38386952E+08,
                   VALE_REFE=1.39164000E8,
                   REFERENCE='NON_DEFINI',
                   CRITERE='RELATIF',
                   PRECISION=0.050000000000000003,
                   MAILLE='MA000090',),
                _F(NUME_ORDRE=4,
                   RESULTAT=CALCNL,
                   NOM_CHAM='SIGM_ELNO',
                   NOEUD='NO000164',
                   NOM_CMP='SIZZ',
                   VALE_CALC= 1.64316635E+08,
                   VALE_REFE=1.64031000E8,
                   REFERENCE='NON_DEFINI',
                   CRITERE='RELATIF',
                   PRECISION=0.050000000000000003,
                   MAILLE='MA000101',),
                _F(NUME_ORDRE=5,
                   RESULTAT=CALCNL,
                   NOM_CHAM='SIGM_ELNO',
                   NOEUD='NO000222',
                   NOM_CMP='SIZZ',
                   VALE_CALC= 1.27582953E+08,
                   VALE_REFE=1.28421000E8,
                   REFERENCE='NON_DEFINI',
                   CRITERE='RELATIF',
                   PRECISION=0.050000000000000003,
                   MAILLE='MA000090',),
                _F(NUME_ORDRE=5,
                   RESULTAT=CALCNL,
                   NOM_CHAM='SIGM_ELNO',
                   NOEUD='NO000164',
                   NOM_CMP='SIZZ',
                   VALE_CALC= 1.57077798E+08,
                   VALE_REFE=1.56861000E8,
                   REFERENCE='NON_DEFINI',
                   CRITERE='RELATIF',
                   PRECISION=0.050000000000000003,
                   MAILLE='MA000101',),
                ),
          )

FIN()
#
