# TITRE    : PATIN GLISSANT SUR UN PLAN RIGIDE
# ======================================================================
# COPYRIGHT (C) 1991 - 2012  EDF R&D                  WWW.CODE-ASTER.ORG
# THIS PROGRAM IS FREE SOFTWARE; YOU CAN REDISTRIBUTE IT AND/OR MODIFY
# IT UNDER THE TERMS OF THE GNU GENERAL PUBLIC LICENSE AS PUBLISHED BY
# THE FREE SOFTWARE FOUNDATION; EITHER VERSION 2 OF THE LICENSE, OR
# (AT YOUR OPTION) ANY LATER VERSION.
#
# THIS PROGRAM IS DISTRIBUTED IN THE HOPE THAT IT WILL BE USEFUL, BUT
# WITHOUT ANY WARRANTY; WITHOUT EVEN THE IMPLIED WARRANTY OF
# MERCHANTABILITY OR FITNESS FOR A PARTICULAR PURPOSE. SEE THE GNU
# GENERAL PUBLIC LICENSE FOR MORE DETAILS.
#
# YOU SHOULD HAVE RECEIVED A COPY OF THE GNU GENERAL PUBLIC LICENSE
# ALONG WITH THIS PROGRAM; IF NOT, WRITE TO EDF R&D CODE_ASTER,
#    1 AVENUE DU GENERAL DE GAULLE, 92141 CLAMART CEDEX, FRANCE.
# ======================================================================
# CAS TEST SSNV503F
# - MODELISATION 3D
# - METHODE LAGRANGIENNE POUR LE CONTACT ET PENALISEE POUR LE FROTTEMENT
# - JEU DEFINI AVEC DIST_ESCL

DEBUT(CODE=_F(NOM='SSNV503F',NIV_PUB_WEB='INTERNET',),DEBUG=_F(SDVERI='OUI'))

MAIL=LIRE_MAILLAGE(FORMAT='MED',VERI_MAIL=_F(VERIF='OUI',),);

MAIL=DEFI_GROUP(reuse =MAIL,
                MAILLAGE=MAIL,
                CREA_GROUP_MA=(_F(NOM='RES_LAT',
                                  GROUP_MA='LR',),
                               _F(NOM='RES_FOND',
                                  GROUP_MA='LF',),
                               _F(NOM='RES_HAUT',
                                  GROUP_MA='LP',),),
                CREA_GROUP_NO=_F(TOUT_GROUP_MA='OUI'),);

MO=AFFE_MODELE(MAILLAGE=MAIL,
               VERIF='MAILLE',
               AFFE=(_F(TOUT='OUI',
                        PHENOMENE='MECANIQUE',
                        MODELISATION='3D',),
                     _F(GROUP_MA='RES_LAT',
                        PHENOMENE='MECANIQUE',
                        MODELISATION='DIS_T',),
                     _F(GROUP_MA='RES_FOND',
                        PHENOMENE='MECANIQUE',
                        MODELISATION='DIS_T',),
                     _F(GROUP_MA='RES_HAUT',
                        PHENOMENE='MECANIQUE',
                        MODELISATION='DIS_T',),),);

MAIL=MODI_MAILLAGE(reuse =MAIL,
                   MAILLAGE=MAIL,
                   ORIE_PEAU_3D=_F(GROUP_MA=('SMAI','SESC','FACESUP','FACELAT'),),
                   );

#---------------------------------------------------------------------
#                         CARACTERISTIQUES ELEMENTAIRES
#---------------------------------------------------------------------

CARA=AFFE_CARA_ELEM(MODELE=MO,
                    DISCRET=(_F(GROUP_MA=('RES_FOND','RES_HAUT'),
                                REPERE='LOCAL',
                                CARA='K_T_D_L',
                                VALE=(1.E0,0.0,0.0),),
                             _F(GROUP_MA='RES_LAT',
                                REPERE='LOCAL',
                                CARA='K_T_D_L',
                                VALE=(2.E1,0.0,0.0),),),);

#---------------------------------------------------------------------
#                         CARACTERISTIQUES MATERIAUX
#---------------------------------------------------------------------

MPATIN=DEFI_MATERIAU(ELAS=_F(E=2.10000E6,
                             NU=0.0,),);

MBATI=DEFI_MATERIAU(ELAS=_F(E=1.E5,
                            NU=0.0,),);

CM=AFFE_MATERIAU(MAILLAGE=MAIL,
                 MODELE=MO,
                 AFFE=(_F(GROUP_MA='PATIN',
                          MATER=MPATIN,),
                       _F(GROUP_MA='BATI',
                          MATER=MBATI,),
                          ),);

#---------------------------------------------------------------------
#                         CHARGEMENTS
#---------------------------------------------------------------------

COND_LIM=AFFE_CHAR_MECA(MODELE=MO,
                        DDL_IMPO=(_F(GROUP_NO='BATI',
                                     DX=0.0,DY=0.0,DZ=0.0,),
                                  _F(GROUP_NO=('R1','R2','R3','R4',
                                               'F1','F2','F3','F4',
                                               'P1','P2','P3','P4'),
                                     DX=0.0,DY=0.0,DZ=0.0),
                                  ),);

# CHARGEMENT 1 : APPLICATION DE LA PRESSION NORMALE

PNOR=AFFE_CHAR_MECA(MODELE=MO,
                    PRES_REP=_F(GROUP_MA='FACESUP',
                                PRES=300.0,),);

# CHARGEMENT 2 : APPLICATION DE LA PRESSION NORMALE ET DE LA PRESSION
#                  TANGENTIELLE (PT=0.3*PN*0.99)

PTAN_99=AFFE_CHAR_MECA(MODELE=MO,
                       PRES_REP=_F(GROUP_MA='FACELAT',
                                   PRES=178.19999999999999,),);

# CHARGEMENT 3 : APPLICATION DE LA PRESSION NORMALE ET DE LA PRESSION
#                  TANGENTIELLE (PT=0.3*PN*1.01)

PTAN_101=AFFE_CHAR_MECA(MODELE=MO,
                        PRES_REP=_F(GROUP_MA='FACELAT',
                                    PRES=181.80000000000001,),);

# DEFINITION DU CONTACT

F_DIST_E=DEFI_CONSTANTE(VALE=-2.)
CTAC =DEFI_CONTACT(MODELE       = MO,
                   FORMULATION  = 'DISCRETE',
                   FROTTEMENT   = 'COULOMB',
                   REAC_GEOM    = 'CONTROLE',
                   NB_ITER_GEOM = 2,
                   ZONE=(
                        _F(
                          ALGO_CONT      = 'LAGRANGIEN',
                          ALGO_FROT      = 'PENALISATION',
                          COULOMB        = 0.3,
                          COEF_MATR_FROT = 0.9,
                          E_T            = 1.E+6,
                          APPARIEMENT    = 'MAIT_ESCL',
                          GROUP_MA_MAIT  = 'SMAI',
                          GROUP_MA_ESCL  = 'SESC',
                          NORMALE        = 'MAIT',
                          VECT_MAIT      = 'VECT_Y',
                          MAIT_VECT_Y    = (0.,0.,-1.,),
                          DIST_ESCL      = F_DIST_E,
                         ),
                       ),
                  )


#---------------------------------------------------------------------
#                         RESOLUTION
#---------------------------------------------------------------------

RAMP1=DEFI_FONCTION(NOM_PARA='INST',
                    VALE=(0.0,0.0,
                          0.5,1.0,
                          1.0,1.0),
                    PROL_DROITE='LINEAIRE',
                    PROL_GAUCHE='LINEAIRE',);

RAMP2=DEFI_FONCTION(NOM_PARA='INST',
                    VALE=(0.0,0.0,
                          0.5,0.0,
                          1.0,1.0),
                    PROL_DROITE='LINEAIRE',
                    PROL_GAUCHE='LINEAIRE',);

L_INST=DEFI_LIST_REEL(DEBUT=0.0,
                      INTERVALLE=_F(JUSQU_A=1.0,
                                    NOMBRE=2,),);

# CHARGEMENT 1
U_NOR=STAT_NON_LINE(MODELE=MO,
                    CHAM_MATER=CM,
                    CARA_ELEM=CARA,
                    EXCIT=(_F(CHARGE=PNOR,
                              FONC_MULT=RAMP1,),
                           _F(CHARGE=COND_LIM,),),
                    CONTACT  = CTAC,
                    COMP_INCR=_F(RELATION='ELAS',
                                 TOUT='OUI',),
                    INCREMENT=_F(LIST_INST=L_INST,),
                    SOLVEUR=_F(SYME='OUI',
                               METHODE='LDLT'),
                    NEWTON=_F(MATRICE='TANGENTE',
                              REAC_ITER=1,),
                    CONVERGENCE=_F(ITER_GLOB_MAXI=30,),
                    INFO=1,);

U_NOR=CALC_CHAMP(reuse =U_NOR,
              RESULTAT=U_NOR,
              FORCE='REAC_NODA',
             );
# CHARGEMENT 2
U_99=STAT_NON_LINE(MODELE=MO,
                   CHAM_MATER=CM,
                   CARA_ELEM=CARA,
                   EXCIT=(_F(CHARGE=PNOR,
                             FONC_MULT=RAMP1,),
                          _F(CHARGE=PTAN_99,
                             FONC_MULT=RAMP2,),
                          _F(CHARGE=COND_LIM,),),
                   CONTACT  = CTAC,
                   COMP_INCR=_F(RELATION='ELAS',
                                TOUT='OUI',),
                   INCREMENT=_F(LIST_INST=L_INST,),
                   NEWTON=_F(MATRICE='TANGENTE',
                             REAC_ITER=1,),
                   SOLVEUR=_F(SYME='OUI',
                              METHODE='LDLT',),
                   CONVERGENCE=_F(ITER_GLOB_MAXI=1500,),);

U_99=CALC_CHAMP(reuse =U_99,
             RESULTAT=U_99,
             FORCE='REAC_NODA',
            );
# CHARGEMENT 3
U_101=STAT_NON_LINE(MODELE=MO,
                    CHAM_MATER=CM,
                    CARA_ELEM=CARA,
                    EXCIT=(_F(CHARGE=PNOR,
                              FONC_MULT=RAMP1,),
                           _F(CHARGE=PTAN_101,
                              FONC_MULT=RAMP2,),
                           _F(CHARGE=COND_LIM,),),
                    CONTACT  = CTAC,
                    COMP_INCR=_F(RELATION='ELAS',
                                 TOUT='OUI',),
                    INCREMENT=_F(LIST_INST=L_INST,),
                    NEWTON=_F(MATRICE='TANGENTE',
                              REAC_ITER=1,),
                    SOLVEUR=_F(SYME='OUI',
                               METHODE='LDLT',),
                    CONVERGENCE=_F(ITER_GLOB_MAXI=1500,),
                   INFO=1,
                    );

U_101=CALC_CHAMP(reuse =U_101,
              RESULTAT=U_101,
              FORCE='REAC_NODA',
             );
#---------------------------------------------------------------------
#                         VERIFICATION DES RESULTATS
#---------------------------------------------------------------------
# CHARGEMENT 1
TEST_RESU(RESU=(_F(GROUP_NO='A',
                   INST=1.0,
                   REFERENCE='NON_DEFINI',
                   RESULTAT=U_NOR,
                   NOM_CHAM='DEPL',
                   NOM_CMP='DX',
                   VALE_CALC=0.999999966,
                   VALE_REFE=1.0,
                   PRECISION=1.E-2,),
                _F(GROUP_NO='A',
                   INST=1.0,
                   REFERENCE='NON_DEFINI',
                   RESULTAT=U_NOR,
                   NOM_CHAM='DEPL',
                   NOM_CMP='DY',
                   VALE_CALC=-1.732050827,
                   VALE_REFE=-1.732,
                   PRECISION=1.E-2,),
                _F(GROUP_NO='B',
                   INST=1.0,
                   REFERENCE='NON_DEFINI',
                   RESULTAT=U_NOR,
                   NOM_CHAM='DEPL',
                   NOM_CMP='DX',
                   VALE_CALC=1.000000034,
                   VALE_REFE=1.0,
                   PRECISION=1.E-2,),
                _F(GROUP_NO='B',
                   INST=1.0,
                   REFERENCE='NON_DEFINI',
                   RESULTAT=U_NOR,
                   NOM_CHAM='DEPL',
                   NOM_CMP='DY',
                   VALE_CALC=-1.732050788,
                   VALE_REFE=-1.732,
                   PRECISION=1.E-2,),
                _F(GROUP_NO='C',
                   INST=1.0,
                   REFERENCE='NON_DEFINI',
                   RESULTAT=U_NOR,
                   NOM_CHAM='DEPL',
                   NOM_CMP='DX',
                   VALE_CALC=1.000000034,
                   VALE_REFE=1.0,
                   PRECISION=1.E-2,),
                _F(GROUP_NO='C',
                   INST=1.0,
                   REFERENCE='NON_DEFINI',
                   RESULTAT=U_NOR,
                   NOM_CHAM='DEPL',
                   NOM_CMP='DY',
                   VALE_CALC=-1.732050788,
                   VALE_REFE=-1.732,
                   PRECISION=1.E-2,),
                _F(GROUP_NO='D',
                   INST=1.0,
                   REFERENCE='NON_DEFINI',
                   RESULTAT=U_NOR,
                   NOM_CHAM='DEPL',
                   NOM_CMP='DX',
                   VALE_CALC=0.999999966,
                   VALE_REFE=1.0,
                   PRECISION=1.E-2,),
                _F(GROUP_NO='D',
                   INST=1.0,
                   REFERENCE='NON_DEFINI',
                   RESULTAT=U_NOR,
                   NOM_CHAM='DEPL',
                   NOM_CMP='DY',
                   VALE_CALC=-1.732050827,
                   VALE_REFE=-1.732,
                   PRECISION=1.E-2,),
                ),
          )

TU_NOR=POST_RELEVE_T(ACTION=_F(INTITULE='FORCE',
                               GROUP_NO='SESC',
                               RESULTAT=U_NOR,
                               NOM_CHAM='REAC_NODA',
                               #RESULTANTE=('DX','DY'),
                               NOM_CMP=('DX','DY'),
                               #REPERE='LOCAL',
                               OPERATION='EXTRACTION',
                               INST=1.,),);

TEST_TABLE(REFERENCE='ANALYTIQUE',
           PRECISION=0.050000000000000003,
           VALE_CALC= 2.07839159E+05,
           VALE_REFE=2.07840E5,
           NOM_PARA='DY',
           TYPE_TEST='SOMM',
           TABLE=TU_NOR,)

TEST_TABLE(REFERENCE='ANALYTIQUE',
           PRECISION=0.050000000000000003,
           VALE_CALC=-1.19995994E+05,
           VALE_REFE=-1.20000E5,
           NOM_PARA='DX',
           TYPE_TEST='SOMM',
           TABLE=TU_NOR,)

# CHARGEMENT 2
TEST_RESU(RESU=(_F(GROUP_NO='A',
                   INST=1.0,
                   REFERENCE='NON_DEFINI',
                   RESULTAT=U_99,
                   NOM_CHAM='DEPL',
                   NOM_CMP='DX',
                   VALE_CALC=1.004171957,
                   VALE_REFE=1.0,
                   PRECISION=0.023,),
                _F(GROUP_NO='A',
                   INST=1.0,
                   REFERENCE='NON_DEFINI',
                   RESULTAT=U_99,
                   NOM_CHAM='DEPL',
                   NOM_CMP='DY',
                   VALE_CALC=-1.729642127,
                   VALE_REFE=-1.732,
                   PRECISION=1.E-2,),
                _F(GROUP_NO='B',
                   INST=1.0,
                   REFERENCE='NON_DEFINI',
                   RESULTAT=U_99,
                   NOM_CHAM='DEPL',
                   NOM_CMP='DX',
                   VALE_CALC=1.002000948,
                   VALE_REFE=1.0,
                   PRECISION=1.E-2,),
                _F(GROUP_NO='B',
                   INST=1.0,
                   REFERENCE='NON_DEFINI',
                   RESULTAT=U_99,
                   NOM_CHAM='DEPL',
                   NOM_CMP='DY',
                   VALE_CALC=-1.730895560,
                   VALE_REFE=-1.732,
                   PRECISION=1.E-2,),
                _F(GROUP_NO='C',
                   INST=1.0,
                   REFERENCE='NON_DEFINI',
                   RESULTAT=U_99,
                   NOM_CHAM='DEPL',
                   NOM_CMP='DX',
                   VALE_CALC=1.002000948,
                   VALE_REFE=1.0,
                   PRECISION=0.023,),
                _F(GROUP_NO='C',
                   INST=1.0,
                   REFERENCE='NON_DEFINI',
                   RESULTAT=U_99,
                   NOM_CHAM='DEPL',
                   NOM_CMP='DY',
                   VALE_CALC=-1.730895560,
                   VALE_REFE=-1.732,
                   PRECISION=1.E-2,),
                _F(GROUP_NO='D',
                   INST=1.0,
                   REFERENCE='NON_DEFINI',
                   RESULTAT=U_99,
                   NOM_CHAM='DEPL',
                   NOM_CMP='DX',
                   VALE_CALC=1.004171957,
                   VALE_REFE=1.0,
                   PRECISION=1.E-2,),
                _F(GROUP_NO='D',
                   INST=1.0,
                   REFERENCE='NON_DEFINI',
                   RESULTAT=U_99,
                   NOM_CHAM='DEPL',
                   NOM_CMP='DY',
                   VALE_CALC=-1.729642127,
                   VALE_REFE=-1.732,
                   PRECISION=1.E-2,),
                ),
          )

TU_99=POST_RELEVE_T(ACTION=_F(INTITULE='FORCE',
                              GROUP_NO='SESC',
                              RESULTAT=U_99,
                              NOM_CHAM='REAC_NODA',
                              #RESULTANTE=('DX','DY'),
                              NOM_CMP=('DX','DY'),
                              #REPERE='LOCAL',
                              OPERATION='EXTRACTION',
                              INST=1.),);

TEST_TABLE(REFERENCE='ANALYTIQUE',
           PRECISION=0.050000000000000003,
           VALE_CALC= 1.72199290E+05,
           VALE_REFE=1.72200E5,
           NOM_PARA='DY',
           TYPE_TEST='SOMM',
           TABLE=TU_99,)

TEST_TABLE(REFERENCE='ANALYTIQUE',
           PRECISION=0.050000000000000003,
           VALE_CALC=-1.81726058E+05,
           VALE_REFE=-1.81730E5,
           NOM_PARA='DX',
           TYPE_TEST='SOMM',
           TABLE=TU_99,)

# CHARGEMENT 3
TEST_RESU(RESU=(_F(GROUP_NO='A',
                   INST=1.0,
                   REFERENCE='NON_DEFINI',
                   RESULTAT=U_101,
                   NOM_CHAM='DEPL',
                   NOM_CMP='DX',
                   VALE_CALC=8.821718135,
                   VALE_REFE=8.7940000000000005,
                   PRECISION=1.E-2,),
                _F(GROUP_NO='A',
                   INST=1.0,
                   REFERENCE='NON_DEFINI',
                   RESULTAT=U_101,
                   NOM_CHAM='DEPL',
                   NOM_CMP='DY',
                   VALE_CALC=2.783820263,
                   VALE_REFE=2.7679999999999998,
                   PRECISION=1.E-2,),
                _F(GROUP_NO='B',
                   INST=1.0,
                   REFERENCE='NON_DEFINI',
                   RESULTAT=U_101,
                   NOM_CHAM='DEPL',
                   NOM_CMP='DX',
                   VALE_CALC=8.819387335,
                   VALE_REFE=8.7940000000000005,
                   PRECISION=1.E-2,),
                _F(GROUP_NO='B',
                   INST=1.0,
                   REFERENCE='NON_DEFINI',
                   RESULTAT=U_101,
                   NOM_CHAM='DEPL',
                   NOM_CMP='DY',
                   VALE_CALC=2.782474575,
                   VALE_REFE=2.7679999999999998,
                   PRECISION=1.E-2,),
                _F(GROUP_NO='C',
                   INST=1.0,
                   REFERENCE='NON_DEFINI',
                   RESULTAT=U_101,
                   NOM_CHAM='DEPL',
                   NOM_CMP='DX',
                   VALE_CALC=8.819387351,
                   VALE_REFE=8.7940000000000005,
                   PRECISION=1.E-2,),
                _F(GROUP_NO='C',
                   INST=1.0,
                   REFERENCE='NON_DEFINI',
                   RESULTAT=U_101,
                   NOM_CHAM='DEPL',
                   NOM_CMP='DY',
                   VALE_CALC=2.782474585,
                   VALE_REFE=2.7679999999999998,
                   PRECISION=1.E-2,),
                _F(GROUP_NO='D',
                   INST=1.0,
                   REFERENCE='NON_DEFINI',
                   RESULTAT=U_101,
                   NOM_CHAM='DEPL',
                   NOM_CMP='DX',
                   VALE_CALC=8.821718151,
                   VALE_REFE=8.7940000000000005,
                   PRECISION=1.E-2,),
                _F(GROUP_NO='D',
                   INST=1.0,
                   REFERENCE='NON_DEFINI',
                   RESULTAT=U_101,
                   NOM_CHAM='DEPL',
                   NOM_CMP='DY',
                   VALE_CALC=2.783820273,
                   VALE_REFE=2.7679999999999998,
                   PRECISION=1.E-2,),
                ),
          )

TU_101=POST_RELEVE_T(ACTION=_F(INTITULE='FORCE',
                               GROUP_NO='SESC',
                               RESULTAT=U_101,
                               NOM_CHAM='REAC_NODA',
                               #RESULTANTE=('DX','DY'),
                               NOM_CMP=('DX','DY'),
                               #REPERE='LOCAL',
                               OPERATION='EXTRACTION',
                               INST=1.),);

TEST_TABLE(REFERENCE='ANALYTIQUE',
           PRECISION=0.050000000000000003,
           VALE_CALC= 1.71840359E+05,
           VALE_REFE=1.71486E5,
           NOM_PARA='DY',
           TYPE_TEST='SOMM',
           TABLE=TU_101,)

TEST_TABLE(REFERENCE='ANALYTIQUE',
           PRECISION=0.050000000000000003,
           VALE_CALC=-1.82347741E+05,
           VALE_REFE=-1.82977E5,
           NOM_PARA='DX',
           TYPE_TEST='SOMM',
           TABLE=TU_101,)

FIN();
