# MODIF  DATE 17/02/2009   AUTEUR SELLENET N.SELLENET 
# TITRE CYLINDRE SOUMIS A UN CHOC THERMIQUE ET A UN CHARGEMENT MECANIQUE
# ssnv301a.para = tps_job 1250 mem_job 200Mo ncpus 1 liste_test V
#            CONFIGURATION MANAGEMENT OF EDF VERSION
# ======================================================================
# COPYRIGHT (C) 1991 - 2001  EDF R&D                  WWW.CODE-ASTER.ORG
# THIS PROGRAM IS FREE SOFTWARE; YOU CAN REDISTRIBUTE IT AND/OR MODIFY
# IT UNDER THE TERMS OF THE GNU GENERAL PUBLIC LICENSE AS PUBLISHED BY
# THE FREE SOFTWARE FOUNDATION; EITHER VERSION 2 OF THE LICENSE, OR   
# (AT YOUR OPTION) ANY LATER VERSION.                                 
#
# THIS PROGRAM IS DISTRIBUTED IN THE HOPE THAT IT WILL BE USEFUL, BUT 
# WITHOUT ANY WARRANTY; WITHOUT EVEN THE IMPLIED WARRANTY OF          
# MERCHANTABILITY OR FITNESS FOR A PARTICULAR PURPOSE. SEE THE GNU    
# GENERAL PUBLIC LICENSE FOR MORE DETAILS.                            
#
# YOU SHOULD HAVE RECEIVED A COPY OF THE GNU GENERAL PUBLIC LICENSE   
# ALONG WITH THIS PROGRAM; IF NOT, WRITE TO EDF R&D CODE_ASTER,       
#    1 AVENUE DU GENERAL DE GAULLE, 92141 CLAMART CEDEX, FRANCE.      
# ======================================================================
#
# ELEMENTS HEXA20 ET QUAD8 POUR APPLICATION DU FLUX
#.....................................................................

DEBUT(   CODE=_F(  NOM = 'SSNV301A',NIV_PUB_WEB='INTERNET'))

MAYA=LIRE_MAILLAGE( )

MODEL=AFFE_MODELE(    MAILLAGE=MAYA,
                                VERIF='MAILLE',
                                 AFFE=_F(  TOUT = 'OUI',
                                        PHENOMENE = 'THERMIQUE',
                                        MODELISATION = '3D')
                         )

ACIER=DEFI_MATERIAU(         THER=_F(  RHO_CP = 3552720.,
                                      LAMBDA = 72.)
                      )

MATER=AFFE_MATERIAU(   MAILLAGE=MAYA,
                                AFFE=_F(  TOUT = 'OUI',
                                       MATER = ACIER)
                         )

FLUX_FO=DEFI_FONCTION(       NOM_PARA='INST',
                             PROL_DROITE='EXCLU',
                            PROL_GAUCHE='EXCLU',
                                   VALE=( 0.,      300000.,
                                          100.,    300000.,  )
                        )

CHA=AFFE_CHAR_THER_F(      MODELE=MODEL,
                             FLUX_REP=_F(  GROUP_MA = 'FACE_INT', 
                                        FLUN = FLUX_FO)
                         )

CAT=DEFI_LIST_REEL(    DEBUT=0.0,
                          INTERVALLE=_F(  JUSQU_A = 25.,    NOMBRE = 50)
                      )

THERL=THER_LINEAIRE(        MODELE=MODEL,
                           CHAM_MATER=MATER,
                                EXCIT=_F( CHARGE = CHA),
                            ETAT_INIT=_F( VALE = 0.),  
                            INCREMENT=_F( LIST_INST = CAT),
                           PARM_THETA=1.
                       )

TEST_RESU(RESU=( 
          _F(  RESULTAT = THERL, 
            NOM_CHAM = 'TEMP',
            NUME_ORDRE = 1,  
            NOEUD = 'NO000021',
            NOM_CMP = 'TEMP',  
            CRITERE = 'RELATIF',
            PRECISION = 5.E-2,
            VALE = 1.26658E+01),

          _F(  RESULTAT = THERL, 
            NOM_CHAM = 'TEMP',
            NUME_ORDRE = 1,  
            NOEUD = 'NO000201',
            NOM_CMP = 'TEMP',  
            CRITERE = 'RELATIF',
            PRECISION = 5.E-2,
            VALE = 5.64556E+00),

          _F(  RESULTAT = THERL, 
            NOM_CHAM = 'TEMP',
            NUME_ORDRE = 1,  
            NOEUD = 'NO000202',
            NOM_CMP = 'TEMP',  
            CRITERE = 'RELATIF',
            PRECISION = 5.E-2,
            VALE = 2.50690E+00),

          _F(  RESULTAT = THERL,
            NOM_CHAM = 'TEMP',
            NUME_ORDRE = 1,
            NOEUD = 'NO000203',
            NOM_CMP = 'TEMP',
            CRITERE = 'RELATIF',
            PRECISION = 5.E-2,
            VALE = 1.10448E+00),
 
          _F(  RESULTAT = THERL,
            NOM_CHAM = 'TEMP',
            NUME_ORDRE = 1,
            NOEUD = 'NO000204',
            NOM_CMP = 'TEMP',
            CRITERE = 'RELATIF',
            PRECISION = 5.E-2,
            VALE = 5.06396E-01),
 
          _F(  RESULTAT = THERL,
            NOM_CHAM = 'TEMP',
            NUME_ORDRE = 1,
            NOEUD = 'NO000205',
            NOM_CMP = 'TEMP',
            CRITERE = 'RELATIF',
            PRECISION = 5.E-2,
            VALE = 2.23330E-01),
 
          _F(  RESULTAT = THERL,
            NOM_CHAM = 'TEMP',
            NUME_ORDRE = 1,
            NOEUD = 'NO000206',
            NOM_CMP = 'TEMP',
            CRITERE = 'RELATIF',
            PRECISION = 5.E-2,
            VALE = 9.98984E-02),
 
          _F(  RESULTAT = THERL,
            NOM_CHAM = 'TEMP',
            NUME_ORDRE = 1,
            NOEUD = 'NO000207',
            NOM_CMP = 'TEMP',
            CRITERE = 'RELATIF',
            PRECISION = 5.E-2,
            VALE = 4.41255E-02),
 
          _F(  RESULTAT = THERL,
            NOM_CHAM = 'TEMP',
            NUME_ORDRE = 1,
            NOEUD = 'NO000208',
            NOM_CMP = 'TEMP',
            CRITERE = 'RELATIF',
            PRECISION = 5.E-2,
            VALE = 2.02976E-02),
 
          _F(  RESULTAT = THERL,
            NOM_CHAM = 'TEMP',
            NUME_ORDRE = 1,
            NOEUD = 'NO000209',
            NOM_CMP = 'TEMP',
            CRITERE = 'RELATIF',
            PRECISION = 5.E-2,
            VALE = 8.97177E-03),
 
          _F(  RESULTAT = THERL,
            NOM_CHAM = 'TEMP',
            NUME_ORDRE = 1,
            NOEUD = 'NO000210',
            NOM_CMP = 'TEMP',
            CRITERE = 'RELATIF',
            PRECISION = 5.E-2,
            VALE = 4.05352E-03),
 
          _F(  RESULTAT = THERL,
            NOM_CHAM = 'TEMP',
            NUME_ORDRE = 1,
            NOEUD = 'NO000211',
            NOM_CMP = 'TEMP',
            CRITERE = 'RELATIF',
            PRECISION = 5.E-2,
            VALE = 1.79338E-03),
 
          _F(  RESULTAT = THERL,
            NOM_CHAM = 'TEMP',
            NUME_ORDRE = 1,
            NOEUD = 'NO000212',
            NOM_CMP = 'TEMP',
            CRITERE = 'RELATIF',
            PRECISION = 5.E-2,
            VALE = 8.25938E-04),
 
          _F(  RESULTAT = THERL,
            NOM_CHAM = 'TEMP',
            NUME_ORDRE = 1,
            NOEUD = 'NO000213',
            NOM_CMP = 'TEMP',
            CRITERE = 'RELATIF',
            PRECISION = 5.E-2,
            VALE = 3.68531E-04),
 
          _F(  RESULTAT = THERL,
            NOM_CHAM = 'TEMP',
            NUME_ORDRE = 1,
            NOEUD = 'NO000214',
            NOM_CMP = 'TEMP',
            CRITERE = 'RELATIF',
            PRECISION = 5.E-2,
            VALE = 1.74367E-04),
 
          _F(  RESULTAT = THERL,
            NOM_CHAM = 'TEMP',
            NUME_ORDRE = 1,
            NOEUD = 'NO000215',
            NOM_CMP = 'TEMP',
            CRITERE = 'RELATIF',
            PRECISION = 5.E-2,
            VALE = 8.91805E-05),
 
          _F(  RESULTAT = THERL,
            NOM_CHAM = 'TEMP',
            NUME_ORDRE = 1,
            NOEUD = 'NO000028',
            NOM_CMP = 'TEMP',
            CRITERE = 'RELATIF',
            PRECISION = 5.E-2,
            VALE = 6.98548E-05),
#
#  RESULTATS A 25S
# 
          _F(  RESULTAT = THERL, 
            NOM_CHAM = 'TEMP',
            NUME_ORDRE = 50,  
            NOEUD = 'NO000021',
            NOM_CMP = 'TEMP',  
            CRITERE = 'RELATIF',
            PRECISION = 5.E-2,
            VALE = 8.64175E+01),

          _F(  RESULTAT = THERL, 
            NOM_CHAM = 'TEMP',
            NUME_ORDRE = 50,  
            NOEUD = 'NO000201',
            NOM_CMP = 'TEMP',  
            CRITERE = 'RELATIF',
            PRECISION = 5.E-2,
            VALE = 7.65753E+01),

          _F(  RESULTAT = THERL, 
            NOM_CHAM = 'TEMP',
            NUME_ORDRE = 50,  
            NOEUD = 'NO000202',
            NOM_CMP = 'TEMP',  
            CRITERE = 'RELATIF',
            PRECISION = 5.E-2,
            VALE = 6.77332E+01),

          _F(  RESULTAT = THERL,
            NOM_CHAM = 'TEMP',
            NUME_ORDRE = 50,
            NOEUD = 'NO000203',
            NOM_CMP = 'TEMP',
            CRITERE = 'RELATIF',
            PRECISION = 5.E-2,
            VALE = 5.98571E+01),
 
          _F(  RESULTAT = THERL,
            NOM_CHAM = 'TEMP',
            NUME_ORDRE = 50,
            NOEUD = 'NO000204',
            NOM_CMP = 'TEMP',
            CRITERE = 'RELATIF',
            PRECISION = 5.E-2,
            VALE = 5.28510E+01),
 
          _F(  RESULTAT = THERL,
            NOM_CHAM = 'TEMP',
            NUME_ORDRE = 50,
            NOEUD = 'NO000205',
            NOM_CMP = 'TEMP',
            CRITERE = 'RELATIF',
            PRECISION = 5.E-2,
            VALE = 4.66453E+01),
 
          _F(  RESULTAT = THERL,
            NOM_CHAM = 'TEMP',
            NUME_ORDRE = 50,
            NOEUD = 'NO000206',
            NOM_CMP = 'TEMP',
            CRITERE = 'RELATIF',
            PRECISION = 5.E-2,
            VALE = 4.11819E+01),
 
          _F(  RESULTAT = THERL,
            NOM_CHAM = 'TEMP',
            NUME_ORDRE = 50,
            NOEUD = 'NO000207',
            NOM_CMP = 'TEMP',
            CRITERE = 'RELATIF',
            PRECISION = 5.E-2,
            VALE = 3.64095E+01),
 
          _F(  RESULTAT = THERL,
            NOM_CHAM = 'TEMP',
            NUME_ORDRE = 50,
            NOEUD = 'NO000208',
            NOM_CMP = 'TEMP',
            CRITERE = 'RELATIF',
            PRECISION = 5.E-2,
            VALE = 3.22781E+01),
 
          _F(  RESULTAT = THERL,
            NOM_CHAM = 'TEMP',
            NUME_ORDRE = 50,
            NOEUD = 'NO000209',
            NOM_CMP = 'TEMP',
            CRITERE = 'RELATIF',
            PRECISION = 5.E-2,
            VALE = 2.87460E+01),
 
          _F(  RESULTAT = THERL,
            NOM_CHAM = 'TEMP',
            NUME_ORDRE = 50,
            NOEUD = 'NO000210',
            NOM_CMP = 'TEMP',
            CRITERE = 'RELATIF',
            PRECISION = 5.E-2,
            VALE = 2.57736E+01),
 
          _F(  RESULTAT = THERL,
            NOM_CHAM = 'TEMP',
            NUME_ORDRE = 50,
            NOEUD = 'NO000211',
            NOM_CMP = 'TEMP',
            CRITERE = 'RELATIF',
            PRECISION = 5.E-2,
            VALE = 2.33275E+01),
 
          _F(  RESULTAT = THERL,
            NOM_CHAM = 'TEMP',
            NUME_ORDRE = 50,
            NOEUD = 'NO000212',
            NOM_CMP = 'TEMP',
            CRITERE = 'RELATIF',
            PRECISION = 5.E-2,
            VALE = 2.13766E+01),
 
          _F(  RESULTAT = THERL,
            NOM_CHAM = 'TEMP',
            NUME_ORDRE = 50,
            NOEUD = 'NO000213',
            NOM_CMP = 'TEMP',
            CRITERE = 'RELATIF',
            PRECISION = 5.E-2,
            VALE = 1.98979E+01),
 
          _F(  RESULTAT = THERL,
            NOM_CHAM = 'TEMP',
            NUME_ORDRE = 50,
            NOEUD = 'NO000214',
            NOM_CMP = 'TEMP',
            CRITERE = 'RELATIF',
            PRECISION = 5.E-2,
            VALE = 1.88647E+01),
 
          _F(  RESULTAT = THERL,
            NOM_CHAM = 'TEMP',
            NUME_ORDRE = 50,
            NOEUD = 'NO000215',
            NOM_CMP = 'TEMP',
            CRITERE = 'RELATIF',
            PRECISION = 5.E-2,
            VALE = 1.82450E+01),
 
          _F(  RESULTAT = THERL,
            NOM_CHAM = 'TEMP',
            NUME_ORDRE = 50,
            NOEUD = 'NO000028',
            NOM_CMP = 'TEMP',
            CRITERE = 'RELATIF',
            PRECISION = 5.E-2,
            VALE = 1.80607E+01))

          )

MODEL2=AFFE_MODELE(    MAILLAGE=MAYA,
                                VERIF='MAILLE',
                                 AFFE=_F(  TOUT = 'OUI',
                                        PHENOMENE = 'MECANIQUE',
                                        MODELISATION = '3D')
                         )

E_FO=DEFI_FONCTION(       NOM_PARA='TEMP',
                                VALE=( 0.,     195.E9,  
                                       100.,   175.5E9,    )
                     )

NU_FO=DEFI_FONCTION(       NOM_PARA='TEMP',
                                 VALE=( 0.,     0.3,
                                       100.,    0.3,   )
                     )

ALPHA_FO=DEFI_FONCTION(       NOM_PARA='TEMP',
                                    VALE=( 0.,     12.E-6,
                                          100.,    12.E-6,   )
                     )

ET_FO=DEFI_FONCTION(       NOM_PARA='TEMP',
                                 VALE=( 0.,     2857.504E6,
                                        100.,   1979.695E6, )
                     )

SY_FO=DEFI_FONCTION(       NOM_PARA='TEMP',
                                 VALE=( 0.,     181.E6,
                                        100.,   145.E6,     )
                     )

MAT2=DEFI_MATERIAU(      ELAS_FO=_F(  E = E_FO,   
                                         NU = NU_FO,    
                                         RHO = 7860.,
                                         ALPHA = ALPHA_FO,TEMP_DEF_ALPHA=0.),
                          ECRO_LINE_FO=_F(  D_SIGM_EPSI = ET_FO,
                                         SY = SY_FO)
                          )

MATER2=AFFE_MATERIAU(   MAILLAGE=MAYA,
                                AFFE=_F(  TOUT = 'OUI',
                                       MATER = MAT2),
                                AFFE_VARC=_F( TOUT='OUI',
                                       EVOL=THERL,VALE_REF=0.,
                                        NOM_VARC='TEMP',
                                        NOM_CHAM='TEMP',),
                         )

PRES_FO=DEFI_FONCTION(       NOM_PARA='INST',
                             PROL_DROITE='EXCLU',
                            PROL_GAUCHE='EXCLU',
                                   VALE=( 0.,      0., 
                                          15.,     0.,        
                                          20.,     5.5E6,     
                                          25.,     0.,       )
                        )

ROTA=AFFE_CHAR_MECA(        MODELE=MODEL2,
                             ROTATION=( 2400.,0.,0.,1.,)
                         )

ROTA_FO=DEFI_FONCTION(       NOM_PARA='INST',
                             PROL_DROITE='EXCLU',
                            PROL_GAUCHE='EXCLU',
                                   VALE=( 0.0,   0.0,
                                         15.,    1.0,
                                         25.,    1.0,   )
                        )

PRES=AFFE_CHAR_MECA_F(      MODELE=MODEL2,
                             PRES_REP=_F(  GROUP_MA = 'FACE_INT', 
                                        PRES = PRES_FO)
                         )

CONDLIM=AFFE_CHAR_MECA(     MODELE=MODEL2,DDL_IMPO=(
                              _F(  GROUP_NO = 'FIX_C1',      
                                               DX = 0.),
                                       _F(  GROUP_NO = 'FIX_C2',
                                               DY = 0.),
                                       _F(  GROUP_NO = 'FIX_C3',
                                               DZ = 0.))
                          )

CAT2=DEFI_LIST_REEL(    DEBUT=0.0,INTERVALLE=(
                          _F(  JUSQU_A = 15.,    NOMBRE = 3),
                                     _F(  JUSQU_A = 20.,    NOMBRE = 1),
                                     _F(  JUSQU_A = 25.,    NOMBRE = 1))
                      )

CALCNL=STAT_NON_LINE( 
                            MODELE=MODEL2,
                        CHAM_MATER=MATER2,
                         COMP_INCR=_F( 
                RELATION = 'VMIS_ISOT_LINE',
                DEFORMATION = 'PETIT_REAC'),
                         INCREMENT=_F( 
                LIST_INST = CAT2),
                            NEWTON=_F( 
                MATRICE = 'TANGENTE',
                REAC_ITER = 1),
                       CONVERGENCE=_F( 
                RESI_GLOB_RELA = 1.E-6,
                ITER_GLOB_MAXI = 50),EXCIT=(
                             _F( 
                CHARGE = PRES), _F( 
                CHARGE = ROTA,
                FONC_MULT = ROTA_FO), _F( 
                CHARGE = CONDLIM)),
                     RECH_LINEAIRE=_F( 
                ITER_LINE_MAXI = 3)
              )

CALCNL=CALC_ELEM( reuse=CALCNL,
                            OPTION=(
                  'SIEF_ELNO_ELGA',  'VARI_ELNO_ELGA',),
                          RESULTAT=CALCNL,
                            MODELE=MODEL2,
                        CHAM_MATER=MATER2,
              )

TEST_RESU(RESU=( 
          _F(  RESULTAT = CALCNL,
            NOM_CHAM = 'SIEF_ELNO_ELGA',
            NUME_ORDRE = 3,
            MAILLE = 'MA000473',
            NOEUD = 'NO002931',
            NOM_CMP = 'SIYY',
            CRITERE = 'RELATIF',
            PRECISION = 5.E-2,
            VALE = 1.21692E8),

          _F(  RESULTAT = CALCNL,
            NOM_CHAM = 'SIEF_ELNO_ELGA',
            NUME_ORDRE = 3,
            MAILLE = 'MA000074',
            NOEUD = 'NO000204',
            NOM_CMP = 'SIYY',
            CRITERE = 'RELATIF',
            PRECISION = 5.E-2,
            VALE = 1.67285E8),

          _F(  RESULTAT = CALCNL,
            NOM_CHAM = 'SIEF_ELNO_ELGA',
            NUME_ORDRE = 4,
            MAILLE = 'MA000473',
            NOEUD = 'NO002931',
            NOM_CMP = 'SIYY',
            CRITERE = 'RELATIF',
            PRECISION = 5.E-2,
            VALE = 1.39804E8),

          _F(  RESULTAT = CALCNL,
            NOM_CHAM = 'SIEF_ELNO_ELGA',
            NUME_ORDRE = 4,
            MAILLE = 'MA000074',
            NOEUD = 'NO000204',
            NOM_CMP = 'SIYY',
            CRITERE = 'RELATIF',
            PRECISION = 5.E-2,
            VALE = 1.65266E8),

          _F(  RESULTAT = CALCNL,
            NOM_CHAM = 'SIEF_ELNO_ELGA',
            NUME_ORDRE = 5,
            MAILLE = 'MA000473',
            NOEUD = 'NO002931',
            NOM_CMP = 'SIYY',
            CRITERE = 'RELATIF',
            PRECISION = 5.E-2,
            VALE = 1.28967E8),

          _F(  RESULTAT = CALCNL,
            NOM_CHAM = 'SIEF_ELNO_ELGA',
            NUME_ORDRE = 5,
            MAILLE = 'MA000074',
            NOEUD = 'NO000204',
            NOM_CMP = 'SIYY',
            CRITERE = 'RELATIF',
            PRECISION = 5.E-2,
            VALE = 1.57980E8))
          )

FIN()
#
