# MODIF  DATE 09/04/2013   AUTEUR PELLET J.PELLET 
# TITRE  ESSAI DE TRACTION-CISAILLEMENT 3D (ROUSSELIER_FO)
# ssnv103a.para = tps_job 60 mem_job 512Mo ncpus 1 liste_test S
#            CONFIGURATION MANAGEMENT OF EDF VERSION
# ======================================================================
# COPYRIGHT (C) 1991 - 2013  EDF R&D                  WWW.CODE-ASTER.ORG
# THIS PROGRAM IS FREE SOFTWARE; YOU CAN REDISTRIBUTE IT AND/OR MODIFY
# IT UNDER THE TERMS OF THE GNU GENERAL PUBLIC LICENSE AS PUBLISHED BY
# THE FREE SOFTWARE FOUNDATION; EITHER VERSION 2 OF THE LICENSE, OR
# (AT YOUR OPTION) ANY LATER VERSION.
#
# THIS PROGRAM IS DISTRIBUTED IN THE HOPE THAT IT WILL BE USEFUL, BUT
# WITHOUT ANY WARRANTY; WITHOUT EVEN THE IMPLIED WARRANTY OF
# MERCHANTABILITY OR FITNESS FOR A PARTICULAR PURPOSE. SEE THE GNU
# GENERAL PUBLIC LICENSE FOR MORE DETAILS.
#
# YOU SHOULD HAVE RECEIVED A COPY OF THE GNU GENERAL PUBLIC LICENSE
# ALONG WITH THIS PROGRAM; IF NOT, WRITE TO EDF R&D CODE_ASTER,
#    1 AVENUE DU GENERAL DE GAULLE, 92141 CLAMART CEDEX, FRANCE.
# ======================================================================
#-----------------------------------------------------------------------
# TEST VPCS PLAQUE CARREE EN TRACTION CISAILLEMENT CALCUL 3D
# MODELE ELASTOPLASTIQUE ENDOMMAGEMENT DUCTILE DE ROUSSELIER
# MAILLAGE : ELEMENT 3D CUBE A 8 NOEUDS
# UNITES   : NEWTON , MILLIMETRE , SECONDE (N,MM,S)
#-----------------------------------------------------------------------
#
DEBUT(CODE=_F(NOM='SSNV103A', NIV_PUB_WEB='INTERNET'), DEBUG=_F(SDVERI='OUI'))

CUBE=LIRE_MAILLAGE(    )

TROISD=AFFE_MODELE(            MAILLAGE=CUBE,
                                    AFFE=_F(   PHENOMENE = 'MECANIQUE',
                                            MODELISATION = '3D',
                                            TOUT = 'OUI'))

ECRISO=DEFI_FONCTION(          NOM_PARA='EPSI',
                                PROL_DROITE='LINEAIRE',
                               PROL_GAUCHE='LINEAIRE',
                                     VALE=(
 0.002519,   520.000,
 0.003076,   521.293,
 0.003632,   522.584,
 0.004188,   523.873,
 0.004744,   525.161,
 0.005301,   526.447,
 0.005857,   527.731,
 0.006413,   529.013,
 0.006969,   530.294,
 0.007525,   531.574,
 0.008082,   532.851,
 0.008638,   534.127,
 0.009194,   535.401,
 0.009750,   536.673,
 0.010306,   537.944,
 0.010862,   539.213,
 0.011419,   540.481,
 0.011975,   541.746,
 0.012531,   543.010,
 0.013087,   544.273,
# ... 264 like lines cut
 0.160204,   826.376,  ))

D_T=DEFI_FONCTION(        NOM_PARA='TEMP',
                            PROL_DROITE='CONSTANT',
                           PROL_GAUCHE='CONSTANT',
                          VALE=( 0.,     2.,
                                 1000.,  2.,        ))

S1_T=DEFI_FONCTION(        NOM_PARA='TEMP',
                            PROL_DROITE='CONSTANT',
                           PROL_GAUCHE='CONSTANT',
                          VALE=( 0.,     490.,
                                 1000.,  490.,       ))

F0_T=DEFI_FONCTION(        NOM_PARA='TEMP',
                            PROL_DROITE='CONSTANT',
                           PROL_GAUCHE='CONSTANT',
                          VALE=( 0.,     5.E-4,
                                 1000.,  5.E-4,       ))

ACIER=DEFI_MATERIAU(               ELAS=_F(   E = 206400.,
                                               NU = .3,
                                               ALPHA = 0.),
                                   TRACTION=_F(   SIGM = ECRISO),
                              ROUSSELIER_FO=_F(   D = D_T,
                                               SIGM_1 = S1_T,
                                               PORO_INIT = F0_T))

CHT0=CREA_CHAMP(OPERATION='AFFE', TYPE_CHAM='CART_TEMP_R', MAILLAGE=CUBE,
           AFFE=_F(  TOUT='OUI',   NOM_CMP = 'TEMP',   VALE = 0.E0,  ) )
MAT=AFFE_MATERIAU(  MAILLAGE=CUBE,
                    AFFE=_F(  MAILLE = 'MA1', MATER = ACIER),
                    AFFE_VARC= _F( TOUT = 'OUI', NOM_VARC = 'TEMP', CHAM_GD=CHT0, VALE_REF=20.),
                                           )

LINST=DEFI_LIST_REEL(              DEBUT=.4,
                              INTERVALLE=_F(  JUSQU_A = 1.,  NOMBRE = 8))

TR_CS=AFFE_CHAR_MECA(
            MODELE=TROISD,DDL_IMPO=(
           _F( NOEUD = 'NO4', DX = 0.,DY = 0.),
                    _F( NOEUD = 'NO8', DX = 0.,DY = 0.,DZ = 0.),
                    _F( NOEUD = 'NO2', DX = 0.),
                    _F( NOEUD = 'NO6', DX = 0.)),FORCE_NODALE=(
           _F( NOEUD = ('NO3', 'NO7',),  FX = -50.,  FY = -25.),
                        _F( NOEUD = ('NO4', 'NO8',),  FX = -25.,  FY = 25.),
                        _F( NOEUD = ('NO2', 'NO6',),  FX = 25.,  FY = 25.),
                        _F( NOEUD = ('NO1', 'NO5',),           FY = -25.)) )

COEF=DEFI_FONCTION(      NOM_PARA='INST',
                            PROL_DROITE='LINEAIRE',
                           PROL_GAUCHE='LINEAIRE',
                          VALE=( 0.0,  0.0,
                                 1.0,  4.09707,                  ))

SOLNL=STAT_NON_LINE(
               TITRE='TEST TRACTION_CISAILLEMENT ROUSSELIER',
                            MODELE=TROISD,
                        CHAM_MATER=MAT,
                             EXCIT=_F(
                CHARGE = TR_CS,
                FONC_MULT = COEF),
                         COMP_INCR=_F(
                RELATION = 'ROUSS_PR',
                RESI_INTE_RELA = 1.E-6,
                ITER_INTE_MAXI = 10,),
                         INCREMENT=_F(
                LIST_INST = LINST),
                            NEWTON=_F(
                MATRICE = 'TANGENTE',
                REAC_ITER = 1),
                       CONVERGENCE=_F(
                ITER_GLOB_MAXI = 10,
                RESI_GLOB_RELA = 1.E-6)
              )

SOLNL=CALC_CHAMP(reuse=SOLNL,CONTRAINTE=('SIGM_ELNO'),VARI_INTERNE=('VARI_ELNO'),RESULTAT=SOLNL)


#

TEST_RESU(RESU=(_F(NUME_ORDRE=8,
                   PARA='INST',
                   RESULTAT=SOLNL,
                   VALE_CALC=1.0,
                   TOLE_MACHINE=1.E-3,),
                _F(NUME_ORDRE=8,
                   PARA='ITER_GLOB',
                   VALE_CALC_I=4,
                   RESULTAT=SOLNL,
                   CRITERE='ABSOLU',
                   ),
                ),
          )

SOLNL=CALC_CHAMP(reuse=SOLNL,RESULTAT=SOLNL,DEFORMATION=('EPSI_ELNO'))


TEST_RESU(RESU=(_F(NUME_ORDRE=8,
                   RESULTAT=SOLNL,
                   NOM_CHAM='SIGM_ELNO',
                   NOEUD='NO1',
                   NOM_CMP='SIXX',
                   VALE_CALC=409.70699999999999,
                   TOLE_MACHINE=5.0000000000000001E-4,
                   MAILLE='MA1',),
                _F(NUME_ORDRE=8,
                   RESULTAT=SOLNL,
                   NOM_CHAM='EPSI_ELNO',
                   NOEUD='NO1',
                   NOM_CMP='EPXX',
                   VALE_CALC=0.078386710,
                   VALE_REFE=0.078299999999999995,
                   REFERENCE='NON_DEFINI',
                   PRECISION=2.E-3,
                   MAILLE='MA1',),
                _F(NUME_ORDRE=8,
                   RESULTAT=SOLNL,
                   NOM_CHAM='EPSI_ELNO',
                   NOEUD='NO1',
                   NOM_CMP='EPXY',
                   VALE_CALC=0.117058186,
                   VALE_REFE=0.11700000000000001,
                   REFERENCE='NON_DEFINI',
                   PRECISION=2.E-3,
                   MAILLE='MA1',),
                _F(NUME_ORDRE=8,
                   RESULTAT=SOLNL,
                   NOM_CHAM='VARI_ELNO',
                   NOEUD='NO1',
                   NOM_CMP='V1',
                   VALE_CALC=0.15260000000000001,
                   TOLE_MACHINE=1.E-3,
                   MAILLE='MA1',),
                ),
          )

FIN()
#
