# MODIF  DATE 20/07/2009   AUTEUR GENIAUT S.GENIAUT 
# TITRE MISE EN TENSION DE CABLES DE PRECONTRAINTES DANS UNE POUTRE 3D
# ssnv164b.para = tps_job 170 mem_job 256Mo ncpus 1 liste_test R
#            CONFIGURATION MANAGEMENT OF EDF VERSION
# ======================================================================
# COPYRIGHT (C) 1991 - 2003  EDF R&D                  WWW.CODE-ASTER.ORG
# THIS PROGRAM IS FREE SOFTWARE; YOU CAN REDISTRIBUTE IT AND/OR MODIFY
# IT UNDER THE TERMS OF THE GNU GENERAL PUBLIC LICENSE AS PUBLISHED BY
# THE FREE SOFTWARE FOUNDATION; EITHER VERSION 2 OF THE LICENSE, OR
# (AT YOUR OPTION) ANY LATER VERSION.
#
# THIS PROGRAM IS DISTRIBUTED IN THE HOPE THAT IT WILL BE USEFUL, BUT
# WITHOUT ANY WARRANTY; WITHOUT EVEN THE IMPLIED WARRANTY OF
# MERCHANTABILITY OR FITNESS FOR A PARTICULAR PURPOSE. SEE THE GNU
# GENERAL PUBLIC LICENSE FOR MORE DETAILS.
#
# YOU SHOULD HAVE RECEIVED A COPY OF THE GNU GENERAL PUBLIC LICENSE
# ALONG WITH THIS PROGRAM; IF NOT, WRITE TO EDF R&D CODE_ASTER,
#    1 AVENUE DU GENERAL DE GAULLE, 92141 CLAMART CEDEX, FRANCE.
# ======================================================================
#---------------------------------------------------------------------

DEBUT(CODE=_F(NOM='SSNV164B', NIV_PUB_WEB='INTERNET'), DEBUG=_F(SDVERI='OUI'))

PRE_GIBI();

MAILLAGE=LIRE_MAILLAGE();

MAILLAGE=DEFI_GROUP(reuse =MAILLAGE,
              MAILLAGE=MAILLAGE,
              CREA_GROUP_NO=(_F(GROUP_MA='SU3',),
                             _F(GROUP_MA='PP',),
                             _F(GROUP_MA='CAB1',),
                             _F(GROUP_MA='CAB2',),
                             _F(GROUP_MA='CAB3',),
                             _F(GROUP_MA='CAB4',),
                             _F(GROUP_MA='CAB5',),
                             ),);
MO=AFFE_MODELE(MAILLAGE=MAILLAGE,
               AFFE=(
                       _F(GROUP_MA='VOLTOT',
                        PHENOMENE='MECANIQUE',
                        MODELISATION='3D',),
                       _F(GROUP_MA=('CAB1','CAB2','CAB3','CAB4','CAB5'),
                         PHENOMENE='MECANIQUE',
                         MODELISATION='BARRE',),),);

CE=AFFE_CARA_ELEM(MODELE=MO,
                  BARRE=_F(
                           GROUP_MA=('CAB1','CAB2','CAB3','CAB4','CAB5'),
                           SECTION='CERCLE',
                           CARA='R',
                           VALE=2.8209E-2,),);

MBETON=DEFI_MATERIAU(ELAS=_F(E=4.E10,
                             NU=0.20,
                             RHO=2500,),
                     BPEL_BETON=_F(),);

MCABLE=DEFI_MATERIAU(ELAS=_F(E=1.93000000000E11,
                             NU=0.3,
                             RHO=7850,),
                     BPEL_ACIER=_F(F_PRG=1.94000000000E11,
                                   FROT_COURB=0.0,
                                   FROT_LINE=1.5E-3,),
                     ECRO_LINE = _F(SY = 1.94E11,
                                    D_SIGM_EPSI=1000.,))

CMAT=AFFE_MATERIAU(MAILLAGE=MAILLAGE,
                   AFFE=(
                         _F(GROUP_MA='VOLTOT',
                            MATER=MBETON,),
                         _F(GROUP_MA=('CAB1','CAB2','CAB3','CAB4','CAB5'),
                            MATER=MCABLE,),),);

CLIM =AFFE_CHAR_MECA(MODELE=MO,
                    DDL_IMPO=(
                            _F(GROUP_NO='PP',
                               DX=0.0,DY=0.0,),
                            _F(GROUP_NO='PX',
                               DY=0.0,),
                            _F(GROUP_NO='PY',
                               DX=0.0,),
                            _F(GROUP_NO='SU3',
                               DZ=0.0,), ),
                   PESANTEUR=(9.8100000000000005,0.0,0.0,-1.0,),
                   )

CAB_BP1=DEFI_CABLE_BP(MODELE=MO,
                      CHAM_MATER=CMAT,
                      CARA_ELEM=CE,
                      GROUP_MA_BETON='VOLTOT',
                      DEFI_CABLE=_F(GROUP_MA='CAB1',
                                    GROUP_NO_ANCRAGE=('PC1D','PC1F',),),
                      TYPE_ANCRAGE=('ACTIF','PASSIF',),
                      CONE=_F(RAYON=0.20,
                              LONGUEUR=1.5,
                              PRESENT=('NON','OUI',),),
                      TENSION_INIT=3.750000E6,
                      RECUL_ANCRAGE=0.001,
                      INFO=2,
                      );

CAB_BP2=DEFI_CABLE_BP(MODELE=MO,
                       CHAM_MATER=CMAT,
                       CARA_ELEM=CE,
                       GROUP_MA_BETON='VOLTOT',
                       DEFI_CABLE=_F(GROUP_MA='CAB2',
                                     GROUP_NO_ANCRAGE=('PC2D','PC2F',),),
                       TYPE_ANCRAGE=('ACTIF','PASSIF',),
                       TENSION_INIT=3.750000E6,
                       RECUL_ANCRAGE=0.001,);

CAB_BP3=DEFI_CABLE_BP(MODELE=MO,
                       CHAM_MATER=CMAT,
                       CARA_ELEM=CE,
                       GROUP_MA_BETON='VOLTOT',
                       DEFI_CABLE=_F(GROUP_MA='CAB3',
                                     GROUP_NO_ANCRAGE=('PC3D','PC3F',),),
                       TYPE_ANCRAGE=('ACTIF','PASSIF',),
                       TENSION_INIT=3.750000E6,
                       RECUL_ANCRAGE=0.001,);


CAB_BP4=DEFI_CABLE_BP(MODELE=MO,
                      CHAM_MATER=CMAT,
                      CARA_ELEM=CE,
                      GROUP_MA_BETON='VOLTOT',
                      DEFI_CABLE=_F(GROUP_MA='CAB4',
                                    GROUP_NO_ANCRAGE=('PC4D','PC4F',),),
                      TYPE_ANCRAGE=('ACTIF','PASSIF',),
                      TENSION_INIT=3.750000E6,
                      RECUL_ANCRAGE=0.001,);

CAB_BP5=DEFI_CABLE_BP(MODELE=MO,
                      CHAM_MATER=CMAT,
                      CARA_ELEM=CE,
                      GROUP_MA_BETON='VOLTOT',
                      DEFI_CABLE=_F(GROUP_MA='CAB5',
                                    GROUP_NO_ANCRAGE=('PC5D','PC5F',),),
                      TYPE_ANCRAGE=('ACTIF','ACTIF',),
                      TENSION_INIT=3.750000E6,
                      RECUL_ANCRAGE=0.001,
                      );

CMCAB1=AFFE_CHAR_MECA(MODELE=MO,
                  RELA_CINE_BP=_F(CABLE_BP=CAB_BP1,
                                   SIGM_BPEL='NON',
                                   RELA_CINE='OUI',),)
CMCAB2=AFFE_CHAR_MECA(MODELE=MO,
                  RELA_CINE_BP=_F(CABLE_BP=CAB_BP2,
                                   SIGM_BPEL='NON',
                                   RELA_CINE='OUI',),)
CMCAB3=AFFE_CHAR_MECA(MODELE=MO,
                  RELA_CINE_BP=_F(CABLE_BP=CAB_BP3,
                                    SIGM_BPEL='NON',
                                    RELA_CINE='OUI',),)
CMCAB4=AFFE_CHAR_MECA(MODELE=MO,
                  RELA_CINE_BP=_F(CABLE_BP=CAB_BP4,
                                   SIGM_BPEL='NON',
                                   RELA_CINE='OUI',),)
CMCAB5=AFFE_CHAR_MECA(MODELE=MO,
                  RELA_CINE_BP=_F(CABLE_BP=CAB_BP5,
                                   SIGM_BPEL='NON',
                                   RELA_CINE='OUI',),);


LINST=DEFI_LIST_REEL(VALE=(0.0,150.,300.,450.,600.),);

# ETAPE 1 : EFFET DE LA PESANTEUR

RES1 = STAT_NON_LINE(MODELE=MO,
                     CHAM_MATER=CMAT,
                     CARA_ELEM=CE,
                     COMP_INCR=(_F( RELATION = 'ELAS',),
                                _F(RELATION = 'SANS',
                                   GROUP_MA= ('CABLE'),),),
                     EXCIT   =(_F(CHARGE = CLIM,),
                               _F(CHARGE = CMCAB1),
                               _F(CHARGE = CMCAB2),
                               _F(CHARGE = CMCAB3),
                               _F(CHARGE = CMCAB4),
                               _F(CHARGE = CMCAB5),),
                     INCREMENT=_F(LIST_INST = LINST,
                                  INST_FIN = 150.),)

# chargement 2 : cables 1 et 2
#--------------------------------------------------------
RES1 =  CALC_PRECONT( reuse=RES1,
                            ETAT_INIT=_F(EVOL_NOLI=RES1),
                            MODELE=MO,
                            CHAM_MATER=CMAT,
                            CARA_ELEM=CE,
                            COMP_INCR=(_F( RELATION = 'ELAS',
                                           GROUP_MA='VOLTOT',),
                                       _F( RELATION = 'VMIS_ISOT_LINE',
                                           GROUP_MA = 'CABLE'),),
                            EXCIT   =(_F(CHARGE = CLIM,),),
                            CABLE_BP   =( CAB_BP1, CAB_BP2 ),
                            CABLE_BP_INACTIF = ( CAB_BP3, CAB_BP4, CAB_BP5 ,),
                            INCREMENT=_F(LIST_INST = LINST,
                                           INST_FIN  = 300., ),)

# chargement 3 : cables 3 et 4
#--------------------------------------------------------
RES1 =  CALC_PRECONT( reuse=RES1,
                            ETAT_INIT=_F(EVOL_NOLI=RES1),
                            MODELE=MO,
                            CHAM_MATER=CMAT,
                            CARA_ELEM=CE,
                            COMP_INCR=(_F( RELATION = 'ELAS',
                                           GROUP_MA='VOLTOT',),
                                       _F( RELATION = 'VMIS_ISOT_LINE',
                                           GROUP_MA = 'CABLE'),),
                            EXCIT   =(_F(CHARGE = CLIM,),
                                       _F(CHARGE = CMCAB1,),
                                       _F(CHARGE = CMCAB2,),),
                            CABLE_BP   =( CAB_BP3 , CAB_BP4 ),
                            CABLE_BP_INACTIF = ( CAB_BP5 ,),
                            INCREMENT=_F(LIST_INST = LINST,
                                         INST_FIN  = 450.,  ),)

# chargement 4 : cable 5
#-----------------------------------------------------------
RES1 =  CALC_PRECONT(  reuse=RES1,
                             ETAT_INIT=_F(EVOL_NOLI=RES1),
                             MODELE=MO,
                             CHAM_MATER=CMAT,
                             CARA_ELEM=CE,
                             COMP_INCR=(_F( RELATION = 'ELAS',
                                           GROUP_MA='VOLTOT',),
                                       _F( RELATION = 'VMIS_ISOT_LINE',
                                           GROUP_MA = 'CABLE'),),
                             EXCIT   =(_F(CHARGE = CLIM,),
                                       _F(CHARGE = CMCAB1,),
                                       _F(CHARGE = CMCAB2,),
                                       _F(CHARGE = CMCAB3,),
                                       _F(CHARGE = CMCAB4,),),
                             CABLE_BP   =( CAB_BP5 ,),
                             INCREMENT=_F(LIST_INST = LINST,
                                          INST_FIN = 600.,),)


#  posttraitement
#--------------------------------------

RES1=CALC_ELEM(reuse =RES1,
               OPTION=('SIEF_ELNO_ELGA','EQUI_ELNO_SIGM'),
               RESULTAT=RES1,);

#  cable 1 - inst 300s
TEST_RESU(  RESU=(_F(  RESULTAT = RES1,
                      INST = 300. ,
                      NOEUD = 'N1',
                      MAILLE = 'M5655',
                      NOM_CHAM = 'SIEF_ELNO_ELGA',
                      NOM_CMP = 'N',
                      CRITERE = 'RELATIF',
                      PRECISION = 1.0E-3,
                      VALE = 3.648E+6,
                      REFERENCE='SOURCE_EXTERNE'),
                    _F(  RESULTAT = RES1,
                      INST = 300. ,
                      NOEUD = 'N6',
                      MAILLE = 'M5660',
                      NOM_CHAM = 'SIEF_ELNO_ELGA',
                      NOM_CMP = 'N',
                      CRITERE = 'RELATIF',
                      PRECISION = 1.0E-3,
                      VALE = 3.675E+6,
                      REFERENCE='SOURCE_EXTERNE'),
                     _F(  RESULTAT = RES1,
                      INST = 300. ,
                      NOEUD = 'N11',
                      MAILLE = 'M5664',
                      NOM_CHAM = 'SIEF_ELNO_ELGA',
                      NOM_CMP = 'N',
                      CRITERE = 'RELATIF',
                      PRECISION = 1.0E-3,
                      VALE = 3.693E+6,
                      REFERENCE='SOURCE_EXTERNE'),
                     _F(  RESULTAT = RES1,
                      INST = 300. ,
                      NOEUD = 'N16',
                      MAILLE = 'M5670',
                      NOM_CHAM = 'SIEF_ELNO_ELGA',
                      NOM_CMP = 'N',
                      CRITERE = 'RELATIF',
                      PRECISION = 1.0E-3,
                      VALE = 3.667E+6,
                      REFERENCE='SOURCE_EXTERNE'),
                    _F(  RESULTAT = RES1,
                      INST = 300. ,
                      NOEUD = 'N101',
                      MAILLE = 'M5674',
                      NOM_CHAM = 'SIEF_ELNO_ELGA',
                      NOM_CMP = 'N',
                      CRITERE = 'RELATIF',
                      PRECISION = 1.0E-3,
                      VALE = 3.64E+6,
                      REFERENCE='SOURCE_EXTERNE'),
                         ),)
#  cable 1 - inst 450s
TEST_RESU(  RESU=(_F(  RESULTAT = RES1,
                      INST = 450. ,
                      NOEUD = 'N1',
                      MAILLE = 'M5655',
                      NOM_CHAM = 'SIEF_ELNO_ELGA',
                      NOM_CMP = 'N',
                      CRITERE = 'RELATIF',
                      PRECISION = 1.0E-2,
                      VALE = 3.561E+6,
                      REFERENCE='SOURCE_EXTERNE'),
                    _F(  RESULTAT = RES1,
                      INST = 450. ,
                      NOEUD = 'N6',
                      MAILLE = 'M5660',
                      NOM_CHAM = 'SIEF_ELNO_ELGA',
                      NOM_CMP = 'N',
                      CRITERE = 'RELATIF',
                      PRECISION = 1.0E-2,
                      VALE = 3.588E+6,
                      REFERENCE='SOURCE_EXTERNE'),
                     _F(  RESULTAT = RES1,
                      INST = 450. ,
                      NOEUD = 'N11',
                      MAILLE = 'M5664',
                      NOM_CHAM = 'SIEF_ELNO_ELGA',
                      NOM_CMP = 'N',
                      CRITERE = 'RELATIF',
                      PRECISION = 1.0E-2,
                      VALE = 3.628E+6,
                      REFERENCE='SOURCE_EXTERNE'),
                     _F(  RESULTAT = RES1,
                      INST = 450. ,
                      NOEUD = 'N16',
                      MAILLE = 'M5670',
                      NOM_CHAM = 'SIEF_ELNO_ELGA',
                      NOM_CMP = 'N',
                      CRITERE = 'RELATIF',
                      PRECISION = 1.0E-2,
                      VALE = 3.645E+6,
                      REFERENCE='SOURCE_EXTERNE'),
                    _F(  RESULTAT = RES1,
                      INST = 450. ,
                      NOEUD = 'N101',
                      MAILLE = 'M5674',
                      NOM_CHAM = 'SIEF_ELNO_ELGA',
                      NOM_CMP = 'N',
                      CRITERE = 'RELATIF',
                      PRECISION = 1.0E-2,
                      VALE = 3.629E+6,
                      REFERENCE='SOURCE_EXTERNE'),
                         ),)
#  cable 1 - inst 600s
TEST_RESU(  RESU=(_F(  RESULTAT = RES1,
                      INST = 600. ,
                      NOEUD = 'N1',
                      MAILLE = 'M5655',
                      NOM_CHAM = 'SIEF_ELNO_ELGA',
                      NOM_CMP = 'N',
                      CRITERE = 'RELATIF',
                      PRECISION = 1.0E-2,
                      VALE = 3.519E+6,
                      REFERENCE='SOURCE_EXTERNE'),
                    _F(  RESULTAT = RES1,
                      INST = 600. ,
                      NOEUD = 'N6',
                      MAILLE = 'M5660',
                      NOM_CHAM = 'SIEF_ELNO_ELGA',
                      NOM_CMP = 'N',
                      CRITERE = 'RELATIF',
                      PRECISION = 1.0E-2,
                      VALE = 3.546E+6,
                      REFERENCE='SOURCE_EXTERNE'),
                     _F(  RESULTAT = RES1,
                      INST = 600. ,
                      NOEUD = 'N11',
                      MAILLE = 'M5664',
                      NOM_CHAM = 'SIEF_ELNO_ELGA',
                      NOM_CMP = 'N',
                      CRITERE = 'RELATIF',
                      PRECISION = 1.0E-2,
                      VALE = 3.597E+6,
                      REFERENCE='SOURCE_EXTERNE'),
                     _F(  RESULTAT = RES1,
                      INST = 600. ,
                      NOEUD = 'N16',
                      MAILLE = 'M5670',
                      NOM_CHAM = 'SIEF_ELNO_ELGA',
                      NOM_CMP = 'N',
                      CRITERE = 'RELATIF',
                      PRECISION = 1.0E-2,
                      VALE = 3.635E+6,
                      REFERENCE='SOURCE_EXTERNE'),
                    _F(  RESULTAT = RES1,
                      INST = 600. ,
                      NOEUD = 'N101',
                      MAILLE = 'M5674',
                      NOM_CHAM = 'SIEF_ELNO_ELGA',
                      NOM_CMP = 'N',
                      CRITERE = 'RELATIF',
                      PRECISION = 1.0E-2,
                      VALE = 3.614E+6,
                      REFERENCE='SOURCE_EXTERNE'),
                         ),)
#  cable 3 - inst 450s
TEST_RESU(  RESU=(_F(  RESULTAT = RES1,
                      INST = 450. ,
                      NOEUD = 'N41',
                      MAILLE = 'M5695',
                      NOM_CHAM = 'SIEF_ELNO_ELGA',
                      NOM_CMP = 'N',
                      CRITERE = 'RELATIF',
                      PRECISION = 1.0E-3,
                      VALE = 3.647E+6,
                      REFERENCE='SOURCE_EXTERNE'),
                    _F(  RESULTAT = RES1,
                      INST = 450. ,
                      NOEUD = 'N46',
                      MAILLE = 'M5700',
                      NOM_CHAM = 'SIEF_ELNO_ELGA',
                      NOM_CMP = 'N',
                      CRITERE = 'RELATIF',
                      PRECISION = 1.0E-3,
                      VALE = 3.675E+6,
                      REFERENCE='SOURCE_EXTERNE'),
                     _F(  RESULTAT = RES1,
                      INST = 450. ,
                      NOEUD = 'N51',
                      MAILLE = 'M5705',
                      NOM_CHAM = 'SIEF_ELNO_ELGA',
                      NOM_CMP = 'N',
                      CRITERE = 'RELATIF',
                      PRECISION = 1.0E-3,
                      VALE = 3.695E+6,
                      REFERENCE='SOURCE_EXTERNE'),
                     _F(  RESULTAT = RES1,
                      INST = 450. ,
                      NOEUD = 'N56',
                      MAILLE = 'M5710',
                      NOM_CHAM = 'SIEF_ELNO_ELGA',
                      NOM_CMP = 'N',
                      CRITERE = 'RELATIF',
                      PRECISION = 1.0E-3,
                      VALE = 3.667E+6,
                      REFERENCE='SOURCE_EXTERNE'),
                    _F(  RESULTAT = RES1,
                      INST = 450. ,
                      NOEUD = 'N103',
                      MAILLE = 'M5714',
                      NOM_CHAM = 'SIEF_ELNO_ELGA',
                      NOM_CMP = 'N',
                      CRITERE = 'RELATIF',
                      PRECISION = 1.0E-3,
                      VALE = 3.640E+6,
                      REFERENCE='SOURCE_EXTERNE'),
                         ),)
#  cable 3 - inst 600s
TEST_RESU(  RESU=(_F(  RESULTAT = RES1,
                      INST = 600. ,
                      NOEUD = 'N41',
                      MAILLE = 'M5695',
                      NOM_CHAM = 'SIEF_ELNO_ELGA',
                      NOM_CMP = 'N',
                      CRITERE = 'RELATIF',
                      PRECISION = 1.0E-2,
                      VALE = 3.605E+6,
                      REFERENCE='SOURCE_EXTERNE'),
                    _F(  RESULTAT = RES1,
                      INST = 600. ,
                      NOEUD = 'N46',
                      MAILLE = 'M5700',
                      NOM_CHAM = 'SIEF_ELNO_ELGA',
                      NOM_CMP = 'N',
                      CRITERE = 'RELATIF',
                      PRECISION = 1.0E-2,
                      VALE = 3.632E+6,
                      REFERENCE='SOURCE_EXTERNE'),
                     _F(  RESULTAT = RES1,
                      INST = 600. ,
                      NOEUD = 'N51',
                      MAILLE = 'M5705',
                      NOM_CHAM = 'SIEF_ELNO_ELGA',
                      NOM_CMP = 'N',
                      CRITERE = 'RELATIF',
                      PRECISION = 1.0E-2,
                      VALE = 3.662E+6,
                      REFERENCE='SOURCE_EXTERNE'),
                     _F(  RESULTAT = RES1,
                      INST = 600. ,
                      NOEUD = 'N56',
                      MAILLE = 'M5710',
                      NOM_CHAM = 'SIEF_ELNO_ELGA',
                      NOM_CMP = 'N',
                      CRITERE = 'RELATIF',
                      PRECISION = 1.0E-2,
                      VALE = 3.655E+6,
                      REFERENCE='SOURCE_EXTERNE'),
                    _F(  RESULTAT = RES1,
                      INST = 600. ,
                      NOEUD = 'N103',
                      MAILLE = 'M5714',
                      NOM_CHAM = 'SIEF_ELNO_ELGA',
                      NOM_CMP = 'N',
                      CRITERE = 'RELATIF',
                      PRECISION = 1.0E-2,
                      VALE = 3.625E+6,
                      REFERENCE='SOURCE_EXTERNE'),
                         ),)
#  cable 5 - inst 600s
TEST_RESU(  RESU=(_F(  RESULTAT = RES1,
                      INST = 600. ,
                      NOEUD = 'N81',
                      MAILLE = 'M5735',
                      NOM_CHAM = 'SIEF_ELNO_ELGA',
                      NOM_CMP = 'N',
                      CRITERE = 'RELATIF',
                      PRECISION = 1.0E-3,
                      VALE = 3.647E+6,
                      REFERENCE='SOURCE_EXTERNE'),
                    _F(  RESULTAT = RES1,
                      INST = 600. ,
                      NOEUD = 'N86',
                      MAILLE = 'M5740',
                      NOM_CHAM = 'SIEF_ELNO_ELGA',
                      NOM_CMP = 'N',
                      CRITERE = 'RELATIF',
                      PRECISION = 1.0E-3,
                      VALE = 3.674E+6,
                      REFERENCE='SOURCE_EXTERNE'),
                     _F(  RESULTAT = RES1,
                      INST = 600. ,
                      NOEUD = 'N91',
                      MAILLE = 'M5745',
                      NOM_CHAM = 'SIEF_ELNO_ELGA',
                      NOM_CMP = 'N',
                      CRITERE = 'RELATIF',
                      PRECISION = 1.0E-3,
                      VALE = 3.695E+6,
                      REFERENCE='SOURCE_EXTERNE'),
                     _F(  RESULTAT = RES1,
                      INST = 600. ,
                      NOEUD = 'N96',
                      MAILLE = 'M5750',
                      NOM_CHAM = 'SIEF_ELNO_ELGA',
                      NOM_CMP = 'N',
                      CRITERE = 'RELATIF',
                      PRECISION = 1.0E-3,
                      VALE = 3.674E+6,
                      REFERENCE='SOURCE_EXTERNE'),
                    _F(  RESULTAT = RES1,
                      INST = 600. ,
                      NOEUD = 'N105',
                      MAILLE = 'M5754',
                      NOM_CHAM = 'SIEF_ELNO_ELGA',
                      NOM_CMP = 'N',
                      CRITERE = 'RELATIF',
                      PRECISION = 1.0E-3,
                      VALE = 3.647E+6,
                      REFERENCE='SOURCE_EXTERNE'),
                         ),)


FIN();

