# MODIF  DATE 14/12/2010   AUTEUR PROIX J-M.PROIX 
# TITRE : TRACTION SUR UN POLYCRISTAL A 10 GRAINS, AVEC SIMU_POINT_MAT
# ssnv194c.para = tps_job 150 mem_job 60Mo ncpus 1 liste_test S
#            CONFIGURATION MANAGEMENT OF EDF VERSION
# ======================================================================
# COPYRIGHT (C) 1991 - 2010  EDF R&D                  WWW.CODE-ASTER.ORG
# THIS PROGRAM IS FREE SOFTWARE; YOU CAN REDISTRIBUTE IT AND/OR MODIFY  
# IT UNDER THE TERMS OF THE GNU GENERAL PUBLIC LICENSE AS PUBLISHED BY  
# THE FREE SOFTWARE FOUNDATION; EITHER VERSION 2 OF THE LICENSE, OR     
# (AT YOUR OPTION) ANY LATER VERSION.                                                    
#                                                                       
# THIS PROGRAM IS DISTRIBUTED IN THE HOPE THAT IT WILL BE USEFUL, BUT   
# WITHOUT ANY WARRANTY; WITHOUT EVEN THE IMPLIED WARRANTY OF            
# MERCHANTABILITY OR FITNESS FOR A PARTICULAR PURPOSE. SEE THE GNU      
# GENERAL PUBLIC LICENSE FOR MORE DETAILS.                              
#                                                                       
# YOU SHOULD HAVE RECEIVED A COPY OF THE GNU GENERAL PUBLIC LICENSE     
# ALONG WITH THIS PROGRAM; IF NOT, WRITE TO EDF R&D CODE_ASTER,         
#    1 AVENUE DU GENERAL DE GAULLE, 92141 CLAMART CEDEX, FRANCE.        
# ======================================================================
# RESPONSABLE PROIX J-M.PROIX

DEBUT(CODE=_F(NOM='SSNV194C',
              NIV_PUB_WEB='INTERNET',));


TFIN = 0.005;

LINST=DEFI_LIST_REEL(DEBUT=0.0,
                     INTERVALLE=(_F(JUSQU_A=0.001,
                                    NOMBRE=1,),
                                 _F(JUSQU_A=0.0018,
                                    NOMBRE=140,),
                                 _F(JUSQU_A=TFIN,
                                    NOMBRE=150,),
                                    ),);

ACIER=DEFI_MATERIAU(ELAS=_F(E=145200.0,
                            NU=0.3,),
                    MONO_VISC1=_F(N=10.0,
                                  K=40.0,
                                  C=1.0,),
                    MONO_ISOT1=_F(R_0=75.5,
                                  Q=9.77,
                                  B=19.34,
                                  H1=1.0,
                                  H2=1.0,
                                  H3=1.0,
                                  H4=1.0,
                                  ),
                    MONO_CINE1=_F(D=36.68,),);

EPSZZ=DEFI_FONCTION(NOM_PARA='INST',
                   VALE=(0.0,0.0,1.0,1.0,),
                   PROL_DROITE='LINEAIRE',
                   PROL_GAUCHE='LINEAIRE',);

COMPORT=DEFI_COMPOR(MONOCRISTAL=(_F(MATER=ACIER,
                                    ECOULEMENT='MONO_VISC1',
                                    ECRO_ISOT='MONO_ISOT1',
                                    ECRO_CINE='MONO_CINE1',
                                    ELAS='ELAS',
                                    FAMI_SYST_GLIS='BCC24',),),);



COMPORP=DEFI_COMPOR(POLYCRISTAL=(
                        _F(MONOCRISTAL=COMPORT,FRAC_VOL=0.1,ANGL_EULER=(-150.646,33.864,55.646,),),   
                        _F(MONOCRISTAL=COMPORT,FRAC_VOL=0.1,ANGL_EULER=(-137.138,41.5917,142.138,),), 
                        _F(MONOCRISTAL=COMPORT,FRAC_VOL=0.1,ANGL_EULER=(-166.271,35.46958,171.271,),),
                        _F(MONOCRISTAL=COMPORT,FRAC_VOL=0.1,ANGL_EULER=(-77.676,15.61819,154.676,),), 
                        _F(MONOCRISTAL=COMPORT,FRAC_VOL=0.1,ANGL_EULER=(-78.6463,33.864,155.646,),),  
                        _F(MONOCRISTAL=COMPORT,FRAC_VOL=0.1,ANGL_EULER=(-65.1378,41.5917,142.138,),), 
                        _F(MONOCRISTAL=COMPORT,FRAC_VOL=0.1,ANGL_EULER=(-94.2711,35.46958,71.271,),), 
                        _F(MONOCRISTAL=COMPORT,FRAC_VOL=0.1,ANGL_EULER=(-5.67599,15.61819,154.676,),),
                        _F(MONOCRISTAL=COMPORT,FRAC_VOL=0.1,ANGL_EULER=(-6.64634,33.864,155.646,),),  
                        _F(MONOCRISTAL=COMPORT,FRAC_VOL=0.1,ANGL_EULER=(6.86224,41.5917,142.138,),),
                        ),  
                    LOCALISATION='BETA',DL=0.,DA=0.,
                    );


DEFLIST1 =DEFI_LIST_INST(DEFI_LIST=_F(LIST_INST = LINST),
                        ECHEC=_F(SUBD_METHODE='UNIFORME',
                                 SUBD_PAS=10,
                                 SUBD_NIVEAU=10),)

SOLNL=SIMU_POINT_MAT(INFO=1,
                   COMP_INCR=_F(
                                RELATION='POLYCRISTAL',
                                COMPOR=COMPORP,
                                ALGO_INTE='RUNGE_KUTTA',
                                RESI_INTE_RELA=1.E-6,
                                ),
                   NEWTON=_F(
                             MATRICE='ELASTIQUE',
                             PREDICTION='EXTRAPOL',
                             REAC_ITER=0
                             ),
                   CONVERGENCE=_F(ITER_GLOB_MAXI=50,#RESI_GLOB_RELA=1.E-4
                                     ),
                   MATER      = ACIER,  
                   NB_VARI_TABLE=6,
                   INCREMENT=_F(LIST_INST=DEFLIST1),
                   ARCHIVAGE=_F(LIST_INST=LINST),
                   EPSI_IMPOSE=_F(EPZZ=EPSZZ)
                        );  
                                              
IMPR_TABLE(TABLE=SOLNL)

# comparaison a la modelisation A - agregat 10 grains
TEST_TABLE(TABLE=SOLNL, FILTRE=_F(NOM_PARA='INST',VALE=TFIN),PRECISION=0.09,
           NOM_PARA='SIZZ', VALE=2.79777E+02, REFERENCE='AUTRE_ASTER',)
           
TEST_TABLE(TABLE=SOLNL, FILTRE=_F(NOM_PARA='INST',VALE=TFIN),PRECISION=0.06,
           NOM_PARA='V3', VALE=3.07316E-03, REFERENCE='AUTRE_ASTER',)
           
# non regression
TEST_TABLE(TABLE=SOLNL, FILTRE=_F(NOM_PARA='INST',VALE=TFIN),
           NOM_PARA='SIZZ', VALE=3.011351E+02, REFERENCE='NON_REGRESSION',)
           
TEST_TABLE(TABLE=SOLNL, FILTRE=_F(NOM_PARA='INST',VALE=TFIN),
           NOM_PARA='V3', VALE=2.926067E-03 , REFERENCE='NON_REGRESSION',)
           

FIN()

