# MODIF  DATE 10/10/2012   AUTEUR COURTOIS M.COURTOIS 
# TITRE CONTACT AVEC USURE D'UNE PLAQUE SUR UN PLAN RIGIDE
# ssnv128v.para = tps_job 160 mem_job 512Mo ncpus 1 liste_test R
#            CONFIGURATION MANAGEMENT OF EDF VERSION
# ======================================================================
# COPYRIGHT (C) 1991 - 2012  EDF R&D                  WWW.CODE-ASTER.ORG
# THIS PROGRAM IS FREE SOFTWARE; YOU CAN REDISTRIBUTE IT AND/OR MODIFY
# IT UNDER THE TERMS OF THE GNU GENERAL PUBLIC LICENSE AS PUBLISHED BY
# THE FREE SOFTWARE FOUNDATION; EITHER VERSION 2 OF THE LICENSE, OR
# (AT YOUR OPTION) ANY LATER VERSION.
#
# THIS PROGRAM IS DISTRIBUTED IN THE HOPE THAT IT WILL BE USEFUL, BUT
# WITHOUT ANY WARRANTY; WITHOUT EVEN THE IMPLIED WARRANTY OF
# MERCHANTABILITY OR FITNESS FOR A PARTICULAR PURPOSE. SEE THE GNU
# GENERAL PUBLIC LICENSE FOR MORE DETAILS.
#
# YOU SHOULD HAVE RECEIVED A COPY OF THE GNU GENERAL PUBLIC LICENSE
# ALONG WITH THIS PROGRAM; IF NOT, WRITE TO EDF R&D CODE_ASTER,
#    1 AVENUE DU GENERAL DE GAULLE, 92141 CLAMART CEDEX, FRANCE.
# ======================================================================
# CAS_TEST__:SSNV128V
# TEST DU GRECO CALCUL 2D
# MODELE
# MAILLAGE : ELEMENT 2D QUADRANGLE A 4 NOEUDS
# UNITES   : NEWTON , METRE , SECONDE (N,M,S)
#

DEBUT( CODE=_F(  NOM = 'SSNV128V',NIV_PUB_WEB='INTERNET'),
IGNORE_ALARM=('CALCULEL2_63'),DEBUG=_F(SDVERI='OUI'))

# <CALCULEL2_63> : DANS UN MODELE, IL EXISTE DES ELEMENTS DE TYPE "BORD" QUI N'ONT PAS DE VOISIN AVEC RIGIDITE
#  LE MODELE PROVOQUANT CES ALARMES CONTIENT UNE SURFACE RIGIDE POUR LE CONTACT


#......................................................................
#  CALCUL TEST ELEMENTS FINIS DE CONTACT 2D QUAD4
#  PLAQUE AVEC CONTACT ET USURE SUR UN PLAN RIGIDE
#......................................................................
#
MA=LIRE_MAILLAGE(VERI_MAIL=_F(VERIF='OUI'),FORMAT='MED',)
#
MO=AFFE_MODELE(MAILLAGE=MA,
               AFFE=_F(TOUT = 'OUI',
                       PHENOMENE = 'MECANIQUE',
                       MODELISATION = 'D_PLAN',)
              )
#
MA=MODI_MAILLAGE(reuse=MA,
                 MAILLAGE=MA,
                 ORIE_PEAU_2D=(_F(GROUP_MA = 'LPRESV',),
                               _F(GROUP_MA = 'LPRESH',))
                )
#
MATPLA=DEFI_MATERIAU(ELAS=_F(E = 1.3E11,
                             NU = 0.2,)
                    )
#
CHMAT=AFFE_MATERIAU(MAILLAGE=MA,
                    AFFE=_F(TOUT = 'OUI',
                             MATER = MATPLA,)
                    )
#
CHA1=AFFE_CHAR_MECA(MODELE=MO,
                    DDL_IMPO=(_F(GROUP_MA = 'LBATI',  DX = 0.0, DY = 0.0,),
                              _F(GROUP_NO = 'PPS',    DX = 0.0, DY = 0.0,),
                              _F(GROUP_MA = 'LBLOCX', DX = 0.0,)),
                    PRES_REP=(_F(GROUP_MA = 'LPRESV', PRES = 5.E07,),
                              _F(GROUP_MA = 'LPRESH', PRES = 15.E07,))
                   )
#
CHA2 = DEFI_CONTACT(MODELE         = MO,
                    FORMULATION    = 'CONTINUE',
                    FROTTEMENT     = 'COULOMB',
                    ALGO_RESO_CONT = 'POINT_FIXE',
                    ALGO_RESO_GEOM = 'POINT_FIXE',
                    ALGO_RESO_FROT = 'NEWTON',
                    ITER_CONT_MAXI = 4,
                    ZONE =(
                           _F(
                             GROUP_MA_MAIT = 'LBATI',
                             GROUP_MA_ESCL = 'LCONTA',
                             APPARIEMENT   = 'MAIT_ESCL',
                             NORMALE       = 'MAIT',
                             EXCLUSION_PIV_NUL= 'OUI',
                             ALGO_CONT     = 'STANDARD',
                             COEF_CONT     = 1.0,
                             ALGO_FROT     = 'STANDARD',
                             COEF_FROT     = 1.0,
                             COULOMB       = 1.0,
                             CONTACT_INIT  = 'INTERPENETRE',
                             SEUIL_INIT    = 0.1,
                             ),
                          ),
                   );

RAMPE=DEFI_FONCTION(NOM_PARA='INST',
                    PROL_GAUCHE='LINEAIRE',
                    PROL_DROITE='LINEAIRE',
                    VALE=(0.0,0.0,1.0,1.0,)
                    )
#
L_INST=DEFI_LIST_REEL(DEBUT=0.,
                      INTERVALLE=_F(JUSQU_A = 1.0, NOMBRE = 5,)
                      )
#
#
U2M=STAT_NON_LINE(MODELE    = MO,
                  CHAM_MATER = CHMAT,
                  EXCIT      =(_F(CHARGE = CHA1,
                                  FONC_MULT = RAMPE,),
                               ),
                  CONTACT    = CHA2,
                  COMP_ELAS  = _F(RELATION = 'ELAS',),
                  INCREMENT  = _F(LIST_INST = L_INST,),
                  NEWTON=_F(REAC_ITER=1,),
                  CONVERGENCE= _F(ARRET = 'OUI',
                                 ITER_GLOB_MAXI = 200,
                                 RESI_GLOB_RELA = 1.0E-5,),
#                  INFO=2,
               )
#
U2M=CALC_CHAMP(reuse=U2M,CONTRAINTE=('SIGM_ELNO'),VARI_INTERNE=('VARI_ELNO'),RESULTAT=U2M)

#
TEST_RESU(RESU=(_F(GROUP_NO='PPR',
                   INST=1.0,
                   REFERENCE='AUTRE_ASTER',
                   RESULTAT=U2M,
                   NOM_CHAM='VALE_CONT',
                   NOM_CMP='JEU',
                   VALE_CALC=-3.902908773010E-34,
                   VALE_REFE=0.0,
                   TOLE_MACHINE=9.9999999999999998E-13,
                   CRITERE='ABSOLU',
                   PRECISION=9.9999999999999998E-13,
                   ),
                _F(GROUP_NO='PPR',
                   INST=1.0,
                   REFERENCE='AUTRE_ASTER',
                   RESULTAT=U2M,
                   NOM_CHAM='VALE_CONT',
                   NOM_CMP='CONT',
                   VALE_CALC=1.000000000,
                   VALE_REFE=1.0,
                   CRITERE='RELATIF',
                   PRECISION=1.0000000000000001E-05,
                   ),
                _F(GROUP_NO='PPR',
                   INST=1.0,
                   REFERENCE='AUTRE_ASTER',
                   RESULTAT=U2M,
                   NOM_CHAM='VALE_CONT',
                   NOM_CMP='RN',
                   VALE_CALC= 1.04863768E+05,
                   VALE_REFE=1.04864E5,
                   CRITERE='RELATIF',
                   PRECISION=1.0000000000000001E-05,
                   ),
                _F(GROUP_NO='PPA',
                   INST=1.0,
                   REFERENCE='AUTRE_ASTER',
                   RESULTAT=U2M,
                   NOM_CHAM='DEPL',
                   NOM_CMP='DX',
                   VALE_CALC= 2.84594384E-05,
                   VALE_REFE=2.8600000000000001E-05,
                   PRECISION=0.050000000000000003,
                   ),
                _F(GROUP_NO='PPB',
                   INST=1.0,
                   REFERENCE='AUTRE_ASTER',
                   RESULTAT=U2M,
                   NOM_CHAM='DEPL',
                   NOM_CMP='DX',
                   VALE_CALC= 2.70792364E-05,
                   VALE_REFE=2.72E-05,
                   PRECISION=0.050000000000000003,
                   ),
                _F(GROUP_NO='PPC',
                   INST=1.0,
                   REFERENCE='AUTRE_ASTER',
                   RESULTAT=U2M,
                   NOM_CHAM='DEPL',
                   NOM_CMP='DX',
                   VALE_CALC= 2.27402555E-05,
                   VALE_REFE=2.2799999999999999E-05,
                   PRECISION=0.050000000000000003,
                   ),
                _F(GROUP_NO='PPD',
                   INST=1.0,
                   REFERENCE='AUTRE_ASTER',
                   RESULTAT=U2M,
                   NOM_CHAM='DEPL',
                   NOM_CMP='DX',
                   VALE_CALC= 1.97270669E-05,
                   VALE_REFE=1.98E-05,
                   PRECISION=0.050000000000000003,
                   ),
                _F(GROUP_NO='PPE',
                   INST=1.0,
                   REFERENCE='AUTRE_ASTER',
                   RESULTAT=U2M,
                   NOM_CHAM='DEPL',
                   NOM_CMP='DX',
                   VALE_CALC= 1.53641594E-05,
                   VALE_REFE=1.5E-05,
                   PRECISION=0.050000000000000003,
                   ),
                ),
          )

#
#
FIN()
#
