# MODIF  DATE 30/07/2012   AUTEUR LEFEBVRE J-P.LEFEBVRE 

# TITRE TESTS DE CONTACT POUR LES ELEMENTS QUADRATIQUES
# ssnv167c.para = tps_job 60 mem_job 512Mo ncpus 1 liste_test R
#            CONFIGURATION MANAGEMENT OF EDF VERSION
# ======================================================================
# COPYRIGHT (C) 1991 - 2012  EDF R&D                  WWW.CODE-ASTER.ORG
# THIS PROGRAM IS FREE SOFTWARE; YOU CAN REDISTRIBUTE IT AND/OR MODIFY
# IT UNDER THE TERMS OF THE GNU GENERAL PUBLIC LICENSE AS PUBLISHED BY
# THE FREE SOFTWARE FOUNDATION; EITHER VERSION 2 OF THE LICENSE, OR
# (AT YOUR OPTION) ANY LATER VERSION.
#
# THIS PROGRAM IS DISTRIBUTED IN THE HOPE THAT IT WILL BE USEFUL, BUT
# WITHOUT ANY WARRANTY; WITHOUT EVEN THE IMPLIED WARRANTY OF
# MERCHANTABILITY OR FITNESS FOR A PARTICULAR PURPOSE. SEE THE GNU
# GENERAL PUBLIC LICENSE FOR MORE DETAILS.
#
# YOU SHOULD HAVE RECEIVED A COPY OF THE GNU GENERAL PUBLIC LICENSE
# ALONG WITH THIS PROGRAM; IF NOT, WRITE TO EDF R&D CODE_ASTER,
#    1 AVENUE DU GENERAL DE GAULLE, 92141 CLAMART CEDEX, FRANCE.
# ======================================================================


DEBUT(CODE=_F(NOM='SSNV167C', NIV_PUB_WEB='INTERNET'), DEBUG=_F(SDVERI='OUI'))

MA = LIRE_MAILLAGE(FORMAT='MED',)

MO=AFFE_MODELE(
                MAILLAGE=MA,
                AFFE=_F(  TOUT = 'OUI',
                       PHENOMENE = 'MECANIQUE',
                       MODELISATION = '3D')  )

MA = MODI_MAILLAGE( reuse=MA,  MAILLAGE=MA,
                    ORIE_PEAU_3D=_F(  GROUP_MA = ('CONT1','CONT2')))


MAT=DEFI_MATERIAU(     ELAS=_F(  E = 200000.,
                                  NU = 0.3,
                             ALPHA = 1.E-4),
                 )

CHMAT=AFFE_MATERIAU( MAILLAGE=MA,
                     AFFE=_F(  TOUT = 'OUI',  MATER = MAT,
                               )
                    )



CHBLO = AFFE_CHAR_MECA(    MODELE=MO,
                 DDL_IMPO=(_F(  GROUP_NO =
                      ( 'NH5','NH6','NH18','NH17','NH19','NH20','NH26'), DZ = -0.2 ),
                           _F(  GROUP_NO = 'NH8', DX=0.0, DY=0.0, DZ = -0.2),
                           _F(  GROUP_NO = 'NH7', DX=0.0, DZ = -0.2),
                           _F(  GROUP_NO = 'NB4', DX=0.0, DY=0.0, DZ=0.0),
                           _F(  GROUP_NO = 'NB3', DX=0.0, DZ=0.0),
                           _F(  GROUP_NO =
                      ('NB1','NB9','NB2','NB10','NB11','NB12','NB21'), DZ=0.0),))


CHCO =DEFI_CONTACT(MODELE       = MO,
                  FORMULATION  = 'DISCRETE',
                  REAC_GEOM    = 'CONTROLE',
                  NB_ITER_GEOM = 5,

                  ZONE=(
                        _F(
                          GROUP_MA_MAIT = 'CONT2',
                          GROUP_MA_ESCL = 'CONT1',
                          TOLE_PROJ_EXT = 1,
                         ),
                       ),
                  )

LIST=DEFI_LIST_REEL(    DEBUT=0.,
                           INTERVALLE=_F(  JUSQU_A = 1.,  NOMBRE = 1)
                         )

SOL = STAT_NON_LINE( SOLVEUR=_F(SYME='OUI',),
                     MODELE=MO,
                     CHAM_MATER=CHMAT,
                     INFO=2,
                    EXCIT=(
                         _F(CHARGE = CHBLO),
                         ),
                     CONTACT = CHCO,
                         COMP_ELAS=_F(RELATION = 'ELAS'),
                         INCREMENT=_F(
                         LIST_INST = LIST,),)

SOL=CALC_CHAMP(reuse =SOL,
              RESULTAT=SOL,

              FORCE='REAC_NODA',);

TEST_RESU(RESU=(
                 _F(RESULTAT=SOL,
                   NOM_CHAM='DEPL',
                   NOM_CMP='DZ',
                   NOEUD='N1',
                   VALE=-1.E-01,
                   INST=1,
                   REFERENCE='ANALYTIQUE',
                   PRECISION = 1E-8,
                   ),
                 _F(RESULTAT=SOL,
                   NOM_CHAM='DEPL',
                   NOM_CMP='DZ',
                   NOEUD='N2',
                   VALE=-1.E-01,
                   INST=1,
                   REFERENCE='ANALYTIQUE',
                   PRECISION = 1E-8,
                   ),
                 _F(RESULTAT=SOL,
                   NOM_CHAM='DEPL',
                   NOM_CMP='DZ',
                   NOEUD='N3',
                   VALE=-1.E-01,
                   INST=1,
                   REFERENCE='ANALYTIQUE',
                   PRECISION = 1E-8,
                   ),

                 _F(RESULTAT=SOL,
                   NOM_CHAM='DEPL',
                   NOM_CMP='DZ',
                   NOEUD='N4',
                   VALE=-1.E-01,
                   INST=1,
                   REFERENCE='ANALYTIQUE',
                   PRECISION = 1E-8,
                   ),
                 _F(RESULTAT=SOL,
                   NOM_CHAM='DEPL',
                   NOM_CMP='DZ',
                   NOEUD='N9',
                   VALE=-1.E-01,
                   INST=1,
                   REFERENCE='ANALYTIQUE',
                   PRECISION = 1E-8,
                   ),
                 _F(RESULTAT=SOL,
                   NOM_CHAM='DEPL',
                   NOM_CMP='DZ',
                   NOEUD='N10',
                   VALE=-1.E-01,
                   INST=1,
                   REFERENCE='ANALYTIQUE',
                   PRECISION = 1E-8,
                   ),
                 _F(RESULTAT=SOL,
                   NOM_CHAM='DEPL',
                   NOM_CMP='DZ',
                   NOEUD='N11',
                   VALE=-1.E-01,
                   INST=1,
                   REFERENCE='ANALYTIQUE',
                   PRECISION = 1E-8,
                   ),

                 _F(RESULTAT=SOL,
                   NOM_CHAM='DEPL',
                   NOM_CMP='DZ',
                   NOEUD='N12',
                   VALE=-1.E-01,
                   INST=1,
                   REFERENCE='ANALYTIQUE',
                   PRECISION = 1E-8,
                   ),
                 _F(RESULTAT=SOL,
                   NOM_CHAM='DEPL',
                   NOM_CMP='DZ',
                   NOEUD='N41',
                   VALE=-1.E-01,
                   INST=1,
                   REFERENCE='ANALYTIQUE',
                   PRECISION = 1E-8,
                   ),
                   ),);


TEST_RESU(RESU=(
                 _F(RESULTAT=SOL,
                   NOM_CHAM='REAC_NODA',
                   NOM_CMP='DZ',
                   NOEUD='N1',
                   VALE=1.1111111111111E+03,
                   INST=1,
                   REFERENCE='ANALYTIQUE',
                   PRECISION = 1E-8,
                   ),
                 _F(RESULTAT=SOL,
                   NOM_CHAM='REAC_NODA',
                   NOM_CMP='DZ',
                   NOEUD='N2',
                   VALE=1.1111111111111E+03,
                   INST=1,
                   REFERENCE='ANALYTIQUE',
                   PRECISION = 1E-8,
                   ),
                 _F(RESULTAT=SOL,
                   NOM_CHAM='REAC_NODA',
                   NOM_CMP='DZ',
                   NOEUD='N3',
                   VALE=1.1111111111111E+03,
                   INST=1,
                   REFERENCE='ANALYTIQUE',
                   PRECISION = 1E-8,
                   ),

                 _F(RESULTAT=SOL,
                   NOM_CHAM='REAC_NODA',
                   NOM_CMP='DZ',
                   NOEUD='N4',
                   VALE=1.1111111111111E+03,
                   INST=1,
                   REFERENCE='ANALYTIQUE',
                   PRECISION = 1E-8,
                   ),
                 _F(RESULTAT=SOL,
                   NOM_CHAM='REAC_NODA',
                   NOM_CMP='DZ',
                   NOEUD='N9',
                   VALE=4.4444444444444E+03,
                   INST=1,
                   CRITERE = 'ABSOLU',
                   REFERENCE='ANALYTIQUE',
                   PRECISION = 1E-8,
                   ),
                 _F(RESULTAT=SOL,
                   NOM_CHAM='REAC_NODA',
                   NOM_CMP='DZ',
                   NOEUD='N10',
                   VALE=4.4444444444444E+03,
                   INST=1,
                   REFERENCE='ANALYTIQUE',
                   PRECISION = 1E-8,
                   ),
                 _F(RESULTAT=SOL,
                   NOM_CHAM='REAC_NODA',
                   NOM_CMP='DZ',
                   NOEUD='N11',
                   VALE=4.4444444444444E+03,
                   INST=1,
                   CRITERE = 'ABSOLU',
                   REFERENCE='ANALYTIQUE',
                   PRECISION = 1E-8,
                   ),

                 _F(RESULTAT=SOL,
                   NOM_CHAM='REAC_NODA',
                   NOM_CMP='DZ',
                   NOEUD='N12',
                   VALE=4.4444444444444E+03,
                   INST=1,
                   REFERENCE='ANALYTIQUE',
                   PRECISION = 1E-8,
                   ),

                 _F(RESULTAT=SOL,
                   NOM_CHAM='REAC_NODA',
                   NOM_CMP='DZ',
                   NOEUD='N41',
                   VALE=1.7777777777778E+04,
                   INST=1,
                   REFERENCE='ANALYTIQUE',
                   PRECISION = 1E-8,
                   ),

                   ),);

FIN()



