
# TITRE EXTRUSION D'UN LOPIN
# ======================================================================
# COPYRIGHT (C) 1991 - 2012  EDF R&D                  WWW.CODE-ASTER.ORG
# THIS PROGRAM IS FREE SOFTWARE; YOU CAN REDISTRIBUTE IT AND/OR MODIFY
# IT UNDER THE TERMS OF THE GNU GENERAL PUBLIC LICENSE AS PUBLISHED BY
# THE FREE SOFTWARE FOUNDATION; EITHER VERSION 2 OF THE LICENSE, OR
# (AT YOUR OPTION) ANY LATER VERSION.
#
# THIS PROGRAM IS DISTRIBUTED IN THE HOPE THAT IT WILL BE USEFUL, BUT
# WITHOUT ANY WARRANTY; WITHOUT EVEN THE IMPLIED WARRANTY OF
# MERCHANTABILITY OR FITNESS FOR A PARTICULAR PURPOSE. SEE THE GNU
# GENERAL PUBLIC LICENSE FOR MORE DETAILS.
#
# YOU SHOULD HAVE RECEIVED A COPY OF THE GNU GENERAL PUBLIC LICENSE
# ALONG WITH THIS PROGRAM; IF NOT, WRITE TO EDF R&D CODE_ASTER,
#    1 AVENUE DU GENERAL DE GAULLE, 92141 CLAMART CEDEX, FRANCE.
# ======================================================================
# CAS_TEST : SSNV504A
# MODELE
# MAILLAGE : MODELISATION : AXIS
#             SOLIDE : TRIA3
#             CONTACT : SEG2
# UNITES   : NEWTON , METRE , SECONDE (N,M,S)
#
#


DEBUT(CODE=_F(NIV_PUB_WEB='INTERNET'),IGNORE_ALARM='CONTACT2_15',DEBUG=_F(SDVERI='OUI'))
#......................................................................
#  CALCUL VALIDATION DU PASSAGE DES SINGULARITES GEOMETRIQUES
#......................................................................
#
#


MAILL1=LIRE_MAILLAGE(FORMAT='MED',);

MAILL1=DEFI_GROUP(reuse =MAILL1,
                  MAILLAGE=MAILL1,
                  CREA_GROUP_MA=_F(NOM='TOUT',
                                   UNION=('LOPIN','FILIERE'),),
                  CREA_GROUP_NO=(_F(GROUP_MA='LJA',
                                    NOM='LIM1',),
                                 _F(GROUP_MA='LIJ',
                                    NOM='LIM2',),
                                 _F(GROUP_MA='LHI',
                                    NOM='LIM3',),
                                 _F(GROUP_MA='LMN',
                                    NOM='LMN',),
                                 _F(GROUP_MA='LNK',
                                    NOM='LNK',),
                                 _F(GROUP_MA='SESC1',
                                    NOM='SESC1',),),);
#_____________________________________________________________________
#
#                    DEFINITION DU MODELE
#_____________________________________________________________________
#
#


MO=AFFE_MODELE(MAILLAGE=MAILL1,
               AFFE=_F(TOUT='OUI',
                       PHENOMENE='MECANIQUE',
                       MODELISATION='AXIS',),);
#
# REORIENTATION DU MAILLAGE
#
#


MAILL1=MODI_MAILLAGE(reuse =MAILL1,
                     MAILLAGE=MAILL1,
                     ORIE_PEAU_2D=_F(GROUP_MA=('SMAI1','SESC1'),),
                     );

MAILL1=MODI_MAILLAGE(reuse =MAILL1,
                     MAILLAGE=MAILL1,
                     ORIE_PEAU_2D=_F(GROUP_MA=('SMAI2','SESC2'),),
                     );
#_____________________________________________________________________
#
#                    DEFINITION DES MATERIAUX
#_____________________________________________________________________
#
#


MLOPIN=DEFI_MATERIAU(ELAS=_F(E=5000.0,
                             NU=0.45000000000000001,),);

MFILIERE=DEFI_MATERIAU(ELAS=_F(E=2.E5,
                               NU=0.29999999999999999,),);

CM=AFFE_MATERIAU(MAILLAGE=MAILL1,
                 AFFE=(_F(GROUP_MA='LOPIN',
                          MATER=MLOPIN,),
                       _F(GROUP_MA='FILIERE',
                          MATER=MFILIERE,),),);
#_____________________________________________________________________
#
#                    AFFECTATION DES CONDITIONS AUX LIMITES
#                       ET DU DEPLACEMENT IMPOSE
#_____________________________________________________________________
#
#


CH1=AFFE_CHAR_MECA(MODELE=MO,
                   DDL_IMPO=(_F(GROUP_NO='LIM1',
                                DX=0.0,
                                DY=0.0,),
                             _F(GROUP_NO='LIM2',
                                DX=0.0,
                                DY=0.0,),
                             _F(GROUP_NO='LIM3',
                                DX=0.0,
                                DY=0.0,),
                             _F(GROUP_NO='LNK',
                                DX=0.0,),),);

CH0=AFFE_CHAR_MECA(MODELE=MO,
                   DDL_IMPO=_F(GROUP_NO='LMN',
                               DY=1.0,),);

CH2 = DEFI_CONTACT(MODELE       = MO,
                   FORMULATION  = 'DISCRETE',

                   ZONE=(
                        _F(
                            GROUP_MA_MAIT='SMAI1',
                            GROUP_MA_ESCL='SESC1',
                            SANS_GROUP_NO='LIM1',
                         ),
                        _F(
                            GROUP_MA_MAIT='SMAI2',
                            GROUP_MA_ESCL='SESC2',
                         ),

                       ),
                  )

CH3 = DEFI_CONTACT(MODELE       = MO,
                   FORMULATION  = 'DISCRETE',
                   STOP_INTERP  = 'NON',

                   ZONE=(
                        _F(
                            RESOLUTION   = 'NON',
                            TOLE_INTERP  = 0.5,
                            GROUP_MA_MAIT='SMAI1',
                            GROUP_MA_ESCL='SESC1',
                            SANS_GROUP_NO='LIM1',
                         ),
                        _F(
                            RESOLUTION   = 'NON',
                            TOLE_INTERP  = 0.5,
                            GROUP_MA_MAIT='SMAI2',
                            GROUP_MA_ESCL='SESC2',
                         ),

                       ),
                  )

#_____________________________________________________________________
#
#                    DEFINITIONS DES FONCTIONS TEMPORELLES
#_____________________________________________________________________
#
#


DPLY=DEFI_FONCTION(NOM_PARA='INST',
                   VALE=(0.0,0.0,1.0,1.0),
                   PROL_DROITE='LINEAIRE',
                   PROL_GAUCHE='LINEAIRE',);

L_INST=DEFI_LIST_REEL(DEBUT=0.0,
                      INTERVALLE=(_F(JUSQU_A=5.0,
                                     PAS=5.0,),
                                  _F(JUSQU_A=20.0,
                                     PAS=5.0,),
                                  _F(JUSQU_A=50.0,
                                     PAS=5.0,),
                                  _F(JUSQU_A=70.0,
                                     PAS=5.0,),
                                  _F(JUSQU_A=140.0,
                                     PAS=5.0,),
                                  _F(JUSQU_A=155.0,
                                     PAS=5.0,),),);

U=STAT_NON_LINE(SOLVEUR=_F(),
                MODELE=MO,
                CHAM_MATER=CM,
                EXCIT=(_F(CHARGE=CH0,
                          FONC_MULT=DPLY,),
                       _F(CHARGE=CH1,),
                       ),
                CONTACT  = CH2,
                COMPORTEMENT=_F(RELATION='ELAS',
                             TOUT='OUI',),
                INCREMENT=_F(LIST_INST=L_INST,),
                NEWTON=_F(MATRICE='TANGENTE',
                          REAC_ITER=1,),
                CONVERGENCE=_F(RESI_GLOB_MAXI=9.9999999999999995E-07,),);

TEST_RESU(RESU=(_F(NUME_ORDRE=1,
                   GROUP_NO='K',
                   REFERENCE='ANALYTIQUE',
                   RESULTAT=U,
                   NOM_CHAM='DEPL',
                   NOM_CMP='DY',
                   VALE_CALC=5.0,
                   VALE_REFE=5.0,
                   PRECISION=1.E-3,),
                _F(NUME_ORDRE=4,
                   GROUP_NO='K',
                   REFERENCE='ANALYTIQUE',
                   RESULTAT=U,
                   NOM_CHAM='DEPL',
                   NOM_CMP='DY',
                   VALE_CALC=20.790988854,
                   VALE_REFE=20.825,
                   PRECISION=2.E-3,),
                _F(NUME_ORDRE=10,
                   GROUP_NO='K',
                   REFERENCE='ANALYTIQUE',
                   RESULTAT=U,
                   NOM_CHAM='DEPL',
                   NOM_CMP='DY',
                   VALE_CALC=55.821428961,
                   VALE_REFE=55.88,
                   PRECISION=2.E-3,),
                _F(NUME_ORDRE=14,
                   GROUP_NO='K',
                   REFERENCE='ANALYTIQUE',
                   RESULTAT=U,
                   NOM_CHAM='DEPL',
                   NOM_CMP='DY',
                   VALE_CALC=78.683341980,
                   VALE_REFE=78.69,
                   PRECISION=1.E-3,),
                _F(NUME_ORDRE=28,
                   GROUP_NO='K',
                   REFERENCE='ANALYTIQUE',
                   RESULTAT=U,
                   NOM_CHAM='DEPL',
                   NOM_CMP='DY',
                   VALE_CALC=144.893516936,
                   VALE_REFE=144.895,
                   PRECISION=1.E-3,),
                _F(NUME_ORDRE=31,
                   GROUP_NO='K',
                   REFERENCE='ANALYTIQUE',
                   RESULTAT=U,
                   NOM_CHAM='DEPL',
                   NOM_CMP='DY',
                   VALE_CALC=155.107145081,
                   VALE_REFE=155.096,
                   PRECISION=1.E-3,),
                ),
          )

U2=STAT_NON_LINE(SOLVEUR=_F(),
                 MODELE=MO,
                CHAM_MATER=CM,
                EXCIT=(_F(CHARGE=CH0,
                          FONC_MULT=DPLY,),
                       _F(CHARGE=CH1,),
                       ),
                CONTACT  = CH3,
                COMPORTEMENT=_F(RELATION='ELAS',
                             TOUT='OUI',),
                INCREMENT=_F(LIST_INST=L_INST,),
                NEWTON=_F(MATRICE='TANGENTE',
                          REAC_ITER=1,),
                CONVERGENCE=_F(RESI_GLOB_MAXI=9.9999999999999995E-07,),);

TAB_VC=POST_RELEVE_T(ACTION=_F(OPERATION='EXTRACTION',
                               INTITULE='JEU METHODE VERIF',
                               RESULTAT=U2,
                               NOM_CHAM='CONT_NOEU',
                               GROUP_NO='SESC1',
                             
                               NOM_CMP=('CONT','JEU',),),);

IMPR_TABLE(TABLE=TAB_VC);

TEST_RESU(RESU=_F(REFERENCE='ANALYTIQUE',
                  NUME_ORDRE=31,
                  GROUP_NO='K',
                  RESULTAT=U2,
                  NOM_CHAM='DEPL',
                  NOM_CMP='DY',
                  VALE_REFE=155.096,
                  VALE_CALC=155.0,
                  PRECISION=1.E-3,
                  ),
          )

TEST_TABLE(REFERENCE='ANALYTIQUE',
           VALE_CALC=-5.0,
           VALE_REFE=-5.0,
           NOM_PARA='JEU',
           TABLE=TAB_VC,
           FILTRE=(_F(NOM_PARA='ABSC_CURV',
                      VALE=65.0,),
                   _F(NOM_PARA='INST',
                      VALE=100.0,),
                   ),
           )

TEST_TABLE(REFERENCE='ANALYTIQUE',
           VALE_CALC=-2.0,
           VALE_REFE=-2.0,
           NOM_PARA='JEU',
           TABLE=TAB_VC,
           FILTRE=(_F(NOM_PARA='ABSC_CURV',
                      VALE=65.0,),
                   _F(NOM_PARA='INST',
                      VALE=155.0,),
                   ),
           )

TEST_TABLE(VALE_CALC=-5.00000E+00,
           NOM_PARA='JEU',
           TABLE=TAB_VC,
           FILTRE=(
                   _F(NOM_PARA='ABSC_CURV',
                      VALE=65.0,),
                   _F(NOM_PARA='CONT',
                      VALE=3.0),
                   _F(NOM_PARA='INST',
                      VALE=100.0,),
                   ),
           )

FIN();
#
