# TITRE CALCUL DE CHARGE LIMITE EN AXI - METHODE DE NORTON-HOFF
#            CONFIGURATION MANAGEMENT OF EDF VERSION
# ======================================================================
# COPYRIGHT (C) 1991 - 2012  EDF R&D                  WWW.CODE-ASTER.ORG
# THIS PROGRAM IS FREE SOFTWARE; YOU CAN REDISTRIBUTE IT AND/OR MODIFY
# IT UNDER THE TERMS OF THE GNU GENERAL PUBLIC LICENSE AS PUBLISHED BY
# THE FREE SOFTWARE FOUNDATION; EITHER VERSION 2 OF THE LICENSE, OR
# (AT YOUR OPTION) ANY LATER VERSION.
#
# THIS PROGRAM IS DISTRIBUTED IN THE HOPE THAT IT WILL BE USEFUL, BUT
# WITHOUT ANY WARRANTY; WITHOUT EVEN THE IMPLIED WARRANTY OF
# MERCHANTABILITY OR FITNESS FOR A PARTICULAR PURPOSE. SEE THE GNU
# GENERAL PUBLIC LICENSE FOR MORE DETAILS.
#
# YOU SHOULD HAVE RECEIVED A COPY OF THE GNU GENERAL PUBLIC LICENSE
# ALONG WITH THIS PROGRAM; IF NOT, WRITE TO EDF R&D CODE_ASTER,
#    1 AVENUE DU GENERAL DE GAULLE, 92141 CLAMART CEDEX, FRANCE.
# ======================================================================

DEBUT(CODE=_F(NOM='SSNV124C', NIV_PUB_WEB='INTERNET'), DEBUG=_F(SDVERI='OUI'))

MA=LIRE_MAILLAGE(FORMAT='MED',);

MA=DEFI_GROUP(reuse =MA,
              MAILLAGE=MA,
              CREA_GROUP_NO=_F(GROUP_MA=('LAB','LBC','LDA',),),);

MA=DEFI_GROUP(reuse =MA,
              MAILLAGE=MA,
              CREA_GROUP_MA=_F(NOM='MATIERE',
                               TOUT='OUI',),
              CREA_GROUP_NO=_F(GROUP_MA='MATIERE',
                               NOM='SOMMETS',
                               CRIT_NOEUD='SOMMET',),);

MO=AFFE_MODELE(MAILLAGE=MA,
               AFFE=_F(TOUT='OUI',
                       PHENOMENE='MECANIQUE',
                       MODELISATION='AXIS_INCO',),);

CM=DEFI_MATERIAU(ECRO_LINE=_F(D_SIGM_EPSI=0,
                              SY=10,),);

CHMAT=AFFE_MATERIAU(MAILLAGE=MA,
                    AFFE=_F(TOUT='OUI',
                            MATER=CM,),);
# ----------- CONDITIONS AUX LIMITES --------------------------------

CH_CL=AFFE_CHAR_MECA(MODELE=MO,
                     DDL_IMPO=(_F(GROUP_NO='LBC',
                                  DY=0.0,),
                               _F(GROUP_NO='LDA',
                                  DY=0.0,),),);

INCOMP=AFFE_CHAR_MECA(MODELE=MO,
                      DDL_IMPO=_F(GROUP_NO='SOMMETS',
                                  GONF=0,),);
# ----------- CHARGEMENT A PILOTER ----------------------------------

CH1=AFFE_CHAR_MECA(MODELE=MO,
                   FORCE_CONTOUR=_F(GROUP_MA='LAB',
                                    FX=1.0,),);

L_INST=DEFI_LIST_REEL(DEBUT=0.0,
                      INTERVALLE=_F(JUSQU_A=1.69897,
                                    NOMBRE=1,),);
# -------------- CALCUL AVEC LA LOI DE NORTON-HOFF -----------------

RESU=STAT_NON_LINE(MODELE=MO,
                   CHAM_MATER=CHMAT,
                   EXCIT=(_F(CHARGE=CH_CL,),
                          _F(CHARGE=INCOMP,),
                          _F(CHARGE=CH1,
                             TYPE_CHARGE='FIXE_PILO',),),
                   COMP_INCR=_F(RELATION='NORTON_HOFF',),
                   INCREMENT=_F(LIST_INST=L_INST,),
                   NEWTON=_F(MATRICE='TANGENTE',
                             REAC_ITER=1,),
                   PILOTAGE=_F(TYPE='ANA_LIM',),
                   CONVERGENCE=_F(RESI_GLOB_MAXI=1e-05,
                                  ITER_GLOB_MAXI=15,),
                   SOLVEUR=_F(METHODE='MULT_FRONT',
                              RENUM='MDA',),);

ECHL=POST_ELEM(CHAR_LIMITE=_F(),NUME_ORDRE=1,
               RESULTAT=RESU,);
#--------------------------------------------------------------
#      TEST DE LA CHARGE LIMITE
#--------------------------------------------------------------

TEST_TABLE(VALE_CALC=12.685,
           TOLE_MACHINE=1.E-3,
           NOM_PARA='CHAR_LIMI_SUP',
           TABLE=ECHL,)

TEST_TABLE(PRECISION=0.02,
           VALE_CALC=8.721515356,
           VALE_REFE=8.5545000000000009,
           REFERENCE='NON_DEFINI',
           NOM_PARA='CHAR_LIMI_ESTIM',
           TABLE=ECHL,)

FIN();
