# ======================================================================
# COPYRIGHT (C) 1991 - 2016  EDF R&D                  WWW.CODE-ASTER.ORG
# THIS PROGRAM IS FREE SOFTWARE; YOU CAN REDISTRIBUTE IT AND/OR MODIFY
# IT UNDER THE TERMS OF THE GNU GENERAL PUBLIC LICENSE AS PUBLISHED BY
# THE FREE SOFTWARE FOUNDATION; EITHER VERSION 2 OF THE LICENSE, OR
# (AT YOUR OPTION) ANY LATER VERSION.
#
# THIS PROGRAM IS DISTRIBUTED IN THE HOPE THAT IT WILL BE USEFUL, BUT
# WITHOUT ANY WARRANTY; WITHOUT EVEN THE IMPLIED WARRANTY OF
# MERCHANTABILITY OR FITNESS FOR A PARTICULAR PURPOSE. SEE THE GNU
# GENERAL PUBLIC LICENSE FOR MORE DETAILS.
#
# YOU SHOULD HAVE RECEIVED A COPY OF THE GNU GENERAL PUBLIC LICENSE
# ALONG WITH THIS PROGRAM; IF NOT, WRITE TO EDF R&D CODE_ASTER,
#    1 AVENUE DU GENERAL DE GAULLE, 92141 CLAMART CEDEX, FRANCE.
# ======================================================================
#                     AVEC LA LOI DE HUJEUX
# PRESSION DE CONSOLIDATION P0 = 50KPA


DEBUT(CODE=_F(NIV_PUB_WEB='INTERNET',VISU_EFICAS='NON'),DEBUG=_F(SDVERI='OUI'))

# modules mecaniques [kPa]
K=516.2E6
G=238.2E6
# =>
YOUNG = 9.*K*G /(3.*K+G)
POISSON = (3.*K-2.*G) /(6.*K+2.*G)

P0 = - 5.E4

MATE=DEFI_MATERIAU(ELAS=_F(E = YOUNG, NU = POISSON),
                   HUJEUX=_F(N=0.4,
                             BETA=24,
                             B=0.2,
                             D=2.5,
                             PHI=33,
                             ANGDIL=33,
                             PCO=-1.E6,
                             PREF=-1.E6,
                             ACYC=0.0001,
                             AMON=0.008,
                             CCYC=0.1,
                             CMON=0.2,
                             RD_ELA=0.005,
                             RI_ELA=0.001,
                             RHYS=0.05,
                             RMOB=0.9,
                             XM=1,
                             RD_CYC=0.005,
                             RI_CYC=0.001,
                             DILA  =1.,),);

TEMPS1=DEFI_LIST_REEL(DEBUT=0,
                      INTERVALLE=(_F(JUSQU_A=10,
                                     NOMBRE=20,),
                                  _F(JUSQU_A=30,
                                     NOMBRE=40,),
                                  _F (JUSQU_A=50,
                                     NOMBRE=40,),),);
TEMPS2=DEFI_LIST_REEL(DEBUT=0,
                      INTERVALLE=(_F(JUSQU_A=10,
                                     NOMBRE=50,),
                                  _F(JUSQU_A=30,
                                     NOMBRE=100,),
                                  _F (JUSQU_A=50,
                                     NOMBRE=100,),),);

DEFLIST1 =DEFI_LIST_INST(DEFI_LIST=_F(LIST_INST = TEMPS1),
                        ECHEC=_F(EVENEMENT     = 'ERREUR',
                                 ACTION        = 'DECOUPE',
                                 SUBD_METHODE  = 'MANUEL',
                                 SUBD_PAS=10,
                                 SUBD_NIVEAU=10),)

DEFLIST2 =DEFI_LIST_INST(DEFI_LIST=_F(LIST_INST = TEMPS2),
                        ECHEC=_F(EVENEMENT     = 'ERREUR',
                                 ACTION        = 'DECOUPE',
                                 SUBD_METHODE  = 'MANUEL',
                                 SUBD_PAS=10,
                                 SUBD_NIVEAU=10),)

################################################################
#ESSAI DE CISAILLEMENT CYCLIQUE A 0.2% DE DEFORMATIONS IMPOSEES#
################################################################
COEF1=DEFI_FONCTION(NOM_PARA='INST',VALE=(0,0,
                          10,-0.002,
                          30,0.002,
                          50,-0.002,),PROL_DROITE='CONSTANT',);

COEF2=DEFI_FONCTION(NOM_PARA='INST',VALE=(0,P0,
                          50,P0,),PROL_DROITE='CONSTANT',);

COEF3=DEFI_FONCTION(NOM_PARA='INST',VALE=(0,0,
                          50,0.,
                          ),PROL_DROITE='CONSTANT',);


U1=SIMU_POINT_MAT(COMPORTEMENT=_F(RELATION='HUJEUX',ITER_INTE_MAXI=20,
                              ALGO_INTE='SPECIFIQUE',
                              RESI_INTE_RELA=1E-8,
                              ITER_INTE_PAS = -5),
                  MATER=MATE,
                  INCREMENT=_F(LIST_INST=DEFLIST1,
                               NUME_INST_INIT=0,
                               INST_FIN=50.,),
                  NEWTON=_F(MATRICE='TANGENTE',
                            REAC_ITER=1,),
#                 RECH_LINEAIRE = _F(ITER_LINE_MAXI = 3),
                  CONVERGENCE=_F(RESI_GLOB_MAXI = 1.E-6,
                                 ITER_GLOB_MAXI = 10),
                  ARCHIVAGE=_F(LIST_INST=TEMPS1,),
                  SIGM_IMPOSE=_F(SIXX=COEF2,
                                 SIYY=COEF2,
                                 SIZZ=COEF2,),
                  EPSI_IMPOSE=_F(EPXY=COEF1,),
                  SIGM_INIT=_F(SIXX=P0,
                               SIYY=P0,
                               SIZZ=P0,),
                  EPSI_INIT=_F(EPXX=0,
                               EPYY=0,
                               EPZZ=0,
                               EPXY=0,
                               EPXZ=0,
                               EPYZ=0,),);

IMPR_TABLE(TABLE=U1,);

#################################################################
#ESSAI DE CISAILLEMENT CYCLIQUE A 0.02% DE DEFORMATIONS IMPOSEES#
#################################################################
COEF4=DEFI_FONCTION(NOM_PARA='INST',VALE=(0,0,
                          10,-0.0002,
                          30,0.0002,
                          50,-0.0002,),PROL_DROITE='CONSTANT',);

U2=SIMU_POINT_MAT(COMPORTEMENT=_F(RELATION='HUJEUX',ITER_INTE_MAXI=20,
                              ALGO_INTE='SPECIFIQUE',
                              RESI_INTE_RELA=1E-8,
                              ITER_INTE_PAS = -5),
                  MATER=MATE,
                  INCREMENT=_F(LIST_INST=DEFLIST1,
                               NUME_INST_INIT=0,
                               INST_FIN=50.,),
                  NEWTON=_F(MATRICE='TANGENTE',
                            REAC_ITER=1,),
#                 RECH_LINEAIRE = _F(ITER_LINE_MAXI = 3),
                  CONVERGENCE=_F(RESI_GLOB_RELA = 1.E-6,
                                 ITER_GLOB_MAXI = 10),
                  ARCHIVAGE=_F(LIST_INST=TEMPS1,),
                  SIGM_IMPOSE=_F(SIXX=COEF2,
                                 SIYY=COEF2,
                                 SIZZ=COEF2,),
                  EPSI_IMPOSE=_F(EPXY=COEF4,),
                  SIGM_INIT=_F(SIXX=P0,
                               SIYY=P0,
                               SIZZ=P0,),
                  EPSI_INIT=_F(EPXX=0,
                               EPYY=0,
                               EPZZ=0,
                               EPXY=0,
                               EPXZ=0,
                               EPYZ=0,),);

IMPR_TABLE(TABLE=U2,);

##################################################################
#ESSAI DE CISAILLEMENT CYCLIQUE A 0.002% DE DEFORMATIONS IMPOSEES#
##################################################################
COEF5=DEFI_FONCTION(NOM_PARA='INST',VALE=(0,0,
                          10,-2.E-5,
                          30,2.E-5,
                          50,-2.E-5,),PROL_DROITE='CONSTANT',);

U3=SIMU_POINT_MAT(COMPORTEMENT=_F(RELATION='HUJEUX',ITER_INTE_MAXI=20,
                              ALGO_INTE='SPECIFIQUE',
                              RESI_INTE_RELA=1E-8,
                              ITER_INTE_PAS = -5),
                  MATER=MATE,
                  INCREMENT=_F(LIST_INST=DEFLIST2,
                               NUME_INST_INIT=0,
                               INST_FIN=50.,),
                  NEWTON=_F(MATRICE='TANGENTE',
                            REAC_ITER=1,),
#                 RECH_LINEAIRE = _F(ITER_LINE_MAXI = 3),
                  CONVERGENCE=_F(RESI_GLOB_RELA = 1.E-6,
                                 ITER_GLOB_MAXI = 10),
                  ARCHIVAGE=_F(LIST_INST=TEMPS2,),
                  SIGM_IMPOSE=_F(SIXX=COEF2,
                                 SIYY=COEF2,
                                 SIZZ=COEF2,),
                  EPSI_IMPOSE=_F(EPXY=COEF5,),
                  SIGM_INIT=_F(SIXX=P0,
                               SIYY=P0,
                               SIZZ=P0,),
                  EPSI_INIT=_F(EPXX=0,
                               EPYY=0,
                               EPZZ=0,
                               EPXY=0,
                               EPXZ=0,
                               EPYZ=0,),);

IMPR_TABLE(TABLE=U3,);


################################################################
#ESSAI DE CISAILLEMENT CYCLIQUE A 0.2% DE DEFORMATIONS IMPOSEES#
################################################################
# TEST DE DE LA COMPOSANTE XY DES CONTRAINTES PAR RAPPORT AUX REFERENCES LAWYER
TEST_TABLE(CRITERE='RELATIF',
           REFERENCE='SOURCE_EXTERNE',
           PRECISION=1.E-2,
           VALE_CALC=-19488.466443205,
           VALE_REFE=-1.9590509999999998E4,
           NOM_PARA='SIXY',
           TABLE=U1,
           FILTRE=_F(CRITERE='ABSOLU',
                     PRECISION=9.0000000000000006E-05,
                     NOM_PARA='INST',
                     VALE=5.0,),
           )

TEST_TABLE(CRITERE='RELATIF',
           REFERENCE='SOURCE_EXTERNE',
           PRECISION=1.E-2,
           VALE_CALC=-24272.532994658,
           VALE_REFE=-2.4319540000000001E4,
           NOM_PARA='SIXY',
           TABLE=U1,
           FILTRE=_F(CRITERE='ABSOLU',
                     PRECISION=9.0000000000000006E-05,
                     NOM_PARA='INST',
                     VALE=10.0,),
           )

TEST_TABLE(CRITERE='RELATIF',
           REFERENCE='SOURCE_EXTERNE',
           PRECISION=1.E-2,
           VALE_CALC= 14771.427020076,
           VALE_REFE=1.479332E4,
           NOM_PARA='SIXY',
           TABLE=U1,
           FILTRE=_F(CRITERE='ABSOLU',
                     PRECISION=9.0000000000000006E-05,
                     NOM_PARA='INST',
                     VALE=20.0,),
           )

TEST_TABLE(CRITERE='RELATIF',
           REFERENCE='SOURCE_EXTERNE',
           PRECISION=1.E-2,
           VALE_CALC= 24346.990829393,
           VALE_REFE=2.4310029999999999E4,
           NOM_PARA='SIXY',
           TABLE=U1,
           FILTRE=_F(CRITERE='ABSOLU',
                     PRECISION=9.0000000000000006E-05,
                     NOM_PARA='INST',
                     VALE=30.0,),
           )

TEST_TABLE(CRITERE='RELATIF',
           REFERENCE='SOURCE_EXTERNE',
           PRECISION=0.02,
           VALE_CALC=-14787.939443998,
           VALE_REFE=-1.488693E4,
           NOM_PARA='SIXY',
           TABLE=U1,
           FILTRE=_F(CRITERE='ABSOLU',
                     PRECISION=9.0000000000000006E-05,
                     NOM_PARA='INST',
                     VALE=40.0,),
           )

TEST_TABLE(CRITERE='RELATIF',
           REFERENCE='SOURCE_EXTERNE',
           PRECISION=1.E-2,
           VALE_CALC=-24381.246915809,
           VALE_REFE=-2.4426200000000001E4,
           NOM_PARA='SIXY',
           TABLE=U1,
           FILTRE=_F(CRITERE='ABSOLU',
                     PRECISION=9.0000000000000006E-05,
                     NOM_PARA='INST',
                     VALE=50.0,),
           )

# TEST DE LA DEFORMATION VOLUMIQUE PLASTIQUE PAR RAPPORT AUX REFERENCES LAWYER
TEST_TABLE(CRITERE='RELATIF',
           REFERENCE='SOURCE_EXTERNE',
           PRECISION=1.E-2,
           VALE_CALC=-1.333185713331E-04,
           VALE_REFE=-1.3233750000000001E-4,
           NOM_PARA='V23',
           TABLE=U1,
           FILTRE=_F(CRITERE='ABSOLU',
                     PRECISION=9.0000000000000006E-05,
                     NOM_PARA='INST',
                     VALE=5.0,),
           )

TEST_TABLE(CRITERE='RELATIF',
           REFERENCE='SOURCE_EXTERNE',
           PRECISION=1.E-2,
           VALE_CALC=-2.3767781496428E-04,
           VALE_REFE=-2.357258E-4,
           NOM_PARA='V23',
           TABLE=U1,
           FILTRE=_F(CRITERE='ABSOLU',
                     PRECISION=9.0000000000000006E-05,
                     NOM_PARA='INST',
                     VALE=10.0,),
           )

TEST_TABLE(CRITERE='RELATIF',
           REFERENCE='SOURCE_EXTERNE',
           PRECISION=1.E-2,
           VALE_CALC=-6.9688094911453E-04,
           VALE_REFE=-6.9678869999999996E-4,
           NOM_PARA='V23',
           TABLE=U1,
           FILTRE=_F(CRITERE='ABSOLU',
                     PRECISION=9.0000000000000006E-05,
                     NOM_PARA='INST',
                     VALE=20.0,),
           )

TEST_TABLE(CRITERE='RELATIF',
           REFERENCE='SOURCE_EXTERNE',
           PRECISION=1.E-2,
           VALE_CALC=-9.8748670080631E-04,
           VALE_REFE=-9.885072999999999E-4,
           NOM_PARA='V23',
           TABLE=U1,
           FILTRE=_F(CRITERE='ABSOLU',
                     PRECISION=9.0000000000000006E-05,
                     NOM_PARA='INST',
                     VALE=30.0,),
           )

TEST_TABLE(CRITERE='RELATIF',
           REFERENCE='SOURCE_EXTERNE',
           PRECISION=1.E-2,
           VALE_CALC=-1.4466603479745E-03,
           VALE_REFE=-1.4475460000000001E-3,
           NOM_PARA='V23',
           TABLE=U1,
           FILTRE=_F(CRITERE='ABSOLU',
                     PRECISION=9.0000000000000006E-05,
                     NOM_PARA='INST',
                     VALE=40.0,),
           )

TEST_TABLE(CRITERE='RELATIF',
           REFERENCE='SOURCE_EXTERNE',
           PRECISION=1.E-2,
           VALE_CALC=-1.7360731572524E-03,
           VALE_REFE=-1.734764E-3,
           NOM_PARA='V23',
           TABLE=U1,
           FILTRE=_F(CRITERE='ABSOLU',
                     PRECISION=9.0000000000000006E-05,
                     NOM_PARA='INST',
                     VALE=50.0,),
           )

#################################################################
#ESSAI DE CISAILLEMENT CYCLIQUE A 0.02% DE DEFORMATIONS IMPOSEES#
#################################################################
# TEST DE DE LA COMPOSANTE XY DES CONTRAINTES PAR RAPPORT AUX REFERENCES LAWYER
TEST_TABLE(CRITERE='RELATIF',
           REFERENCE='SOURCE_EXTERNE',
           PRECISION=1.E-2,
           VALE_CALC=-7176.9064750495,
           VALE_REFE=-7207.0,
           NOM_PARA='SIXY',
           TABLE=U2,
           FILTRE=_F(CRITERE='ABSOLU',
                     PRECISION=9.0000000000000006E-05,
                     NOM_PARA='INST',
                     VALE=5.0,),
           )

TEST_TABLE(CRITERE='RELATIF',
           REFERENCE='SOURCE_EXTERNE',
           PRECISION=1.E-2,
           VALE_CALC=-10145.337714444,
           VALE_REFE=-1.0170E4,
           NOM_PARA='SIXY',
           TABLE=U2,
           FILTRE=_F(CRITERE='ABSOLU',
                     PRECISION=9.0E-05,
                     NOM_PARA='INST',
                     VALE=10.0,),
           )

TEST_TABLE(CRITERE='RELATIF',
           REFERENCE='SOURCE_EXTERNE',
           PRECISION=1.E-2,
           VALE_CALC= 4211.6280455068,
           VALE_REFE=4223.0,
           NOM_PARA='SIXY',
           TABLE=U2,
           FILTRE=_F(CRITERE='ABSOLU',
                     PRECISION=9.0E-05,
                     NOM_PARA='INST',
                     VALE=20.0,),
           )

TEST_TABLE(CRITERE='RELATIF',
           REFERENCE='SOURCE_EXTERNE',
           PRECISION=1.E-2,
           VALE_CALC= 10168.207641876,
           VALE_REFE=1.0150E4,
           NOM_PARA='SIXY',
           TABLE=U2,
           FILTRE=_F(CRITERE='ABSOLU',
                     PRECISION=9.0E-05,
                     NOM_PARA='INST',
                     VALE=30.0,),
           )

TEST_TABLE(CRITERE='RELATIF',
           REFERENCE='SOURCE_EXTERNE',
           PRECISION=0.02,
           VALE_CALC=-4187.8912522105,
           VALE_REFE=-4243.0,
           NOM_PARA='SIXY',
           TABLE=U2,
           FILTRE=_F(CRITERE='ABSOLU',
                     PRECISION=9.0E-05,
                     NOM_PARA='INST',
                     VALE=40.0,),
           )

TEST_TABLE(CRITERE='RELATIF',
           REFERENCE='SOURCE_EXTERNE',
           PRECISION=1.E-2,
           VALE_CALC=-10123.83079066,
           VALE_REFE=-1.0170E4,
           NOM_PARA='SIXY',
           TABLE=U2,
           FILTRE=_F(CRITERE='ABSOLU',
                     PRECISION=9.0E-05,
                     NOM_PARA='INST',
                     VALE=50.0,),
           )

# TEST DE LA DEFORMATION VOLUMIQUE PLASTIQUE PAR RAPPORT AUX REFERENCES LAWYER
TEST_TABLE(CRITERE='RELATIF',
           REFERENCE='SOURCE_EXTERNE',
           PRECISION=0.029999999999999999,
           VALE_CALC=-3.6315253826673E-06,
           VALE_REFE=-3.5930000000000002E-06,
           NOM_PARA='V23',
           TABLE=U2,
           FILTRE=_F(CRITERE='ABSOLU',
                     PRECISION=9.0E-05,
                     NOM_PARA='INST',
                     VALE=5.0,),
           )

TEST_TABLE(CRITERE='RELATIF',
           REFERENCE='SOURCE_EXTERNE',
           PRECISION=1.E-2,
           VALE_CALC=-1.4029896605563E-05,
           VALE_REFE=-1.402E-05,
           NOM_PARA='V23',
           TABLE=U2,
           FILTRE=_F(CRITERE='ABSOLU',
                     PRECISION=9.0E-05,
                     NOM_PARA='INST',
                     VALE=10.0,),
           )

TEST_TABLE(CRITERE='RELATIF',
           REFERENCE='SOURCE_EXTERNE',
           PRECISION=1.E-2,
           VALE_CALC=-2.2668338028433E-05,
           VALE_REFE=-2.2650000000000002E-05,
           NOM_PARA='V23',
           TABLE=U2,
           FILTRE=_F(CRITERE='ABSOLU',
                     PRECISION=9.0E-05,
                     NOM_PARA='INST',
                     VALE=20.0,),
           )

TEST_TABLE(CRITERE='RELATIF',
           REFERENCE='SOURCE_EXTERNE',
           PRECISION=1.E-2,
           VALE_CALC=-4.4849271016574E-05,
           VALE_REFE=-4.4919999999999997E-05,
           NOM_PARA='V23',
           TABLE=U2,
           FILTRE=_F(CRITERE='ABSOLU',
                     PRECISION=9.0000000000000006E-05,
                     NOM_PARA='INST',
                     VALE=30.0,),
           )

TEST_TABLE(CRITERE='RELATIF',
           REFERENCE='SOURCE_EXTERNE',
           PRECISION=1.E-2,
           VALE_CALC=-5.3498200026923E-05,
           VALE_REFE=-5.3539999999999999E-05,
           NOM_PARA='V23',
           TABLE=U2,
           FILTRE=_F(CRITERE='ABSOLU',
                     PRECISION=9.0E-05,
                     NOM_PARA='INST',
                     VALE=40.0,),
           )

TEST_TABLE(CRITERE='RELATIF',
           REFERENCE='SOURCE_EXTERNE',
           PRECISION=1.E-2,
           VALE_CALC=-7.5723267872358E-05,
           VALE_REFE=-7.5779999999999996E-05,
           NOM_PARA='V23',
           TABLE=U2,
           FILTRE=_F(CRITERE='ABSOLU',
                     PRECISION=9.0E-05,
                     NOM_PARA='INST',
                     VALE=50.0,),
           )

##################################################################
#ESSAI DE CISAILLEMENT CYCLIQUE A 0.002% DE DEFORMATIONS IMPOSEES#
##################################################################
# TEST DE DE LA COMPOSANTE XY DES CONTRAINTES PAR RAPPORT AUX REFERENCES LAWYER
TEST_TABLE(CRITERE='RELATIF',
           REFERENCE='SOURCE_EXTERNE',
           PRECISION=1.E-2,
           VALE_CALC=-1259.3243448744,
           VALE_REFE=-1260.0,
           NOM_PARA='SIXY',
           TABLE=U3,
           FILTRE=_F(CRITERE='ABSOLU',
                     PRECISION=9.0E-05,
                     NOM_PARA='INST',
                     VALE=5.0,),
           )

TEST_TABLE(CRITERE='RELATIF',
           REFERENCE='SOURCE_EXTERNE',
           PRECISION=1.E-2,
           VALE_CALC=-2462.7975417813,
           VALE_REFE=-2465.0,
           NOM_PARA='SIXY',
           TABLE=U3,
           FILTRE=_F(CRITERE='ABSOLU',
                     PRECISION=9.0E-05,
                     NOM_PARA='INST',
                     VALE=10.0,),
           )

TEST_TABLE(CRITERE='RELATIF',
           REFERENCE='SOURCE_EXTERNE',
           PRECISION=0.05,
           VALE_CALC=55.92798924707,
           VALE_REFE=54.030000000000001,
           NOM_PARA='SIXY',
           TABLE=U3,
           FILTRE=_F(CRITERE='ABSOLU',
                     PRECISION=9.0E-05,
                     NOM_PARA='INST',
                     VALE=20.0,),
           )

TEST_TABLE(CRITERE='RELATIF',
           REFERENCE='SOURCE_EXTERNE',
           PRECISION=1.E-2,
           VALE_CALC= 2466.8646345014,
           VALE_REFE=2463.0,
           NOM_PARA='SIXY',
           TABLE=U3,
           FILTRE=_F(CRITERE='ABSOLU',
                     PRECISION=9.0E-05,
                     NOM_PARA='INST',
                     VALE=30.0,),
           )

TEST_TABLE(CRITERE='RELATIF',
           REFERENCE='SOURCE_EXTERNE',
           PRECISION=0.1,
           VALE_CALC=-51.860901830146,
           VALE_REFE=-55.78,
           NOM_PARA='SIXY',
           TABLE=U3,
           FILTRE=_F(CRITERE='ABSOLU',
                     PRECISION=9.0E-05,
                     NOM_PARA='INST',
                     VALE=40.0,),
           )

TEST_TABLE(CRITERE='RELATIF',
           REFERENCE='SOURCE_EXTERNE',
           PRECISION=1.E-2,
           VALE_CALC=-2459.6074144164,
           VALE_REFE=-2465.0,
           NOM_PARA='SIXY',
           TABLE=U3,
           FILTRE=_F(CRITERE='ABSOLU',
                     PRECISION=9.0E-05,
                     NOM_PARA='INST',
                     VALE=50.0,),
           )

# TEST DE LA DEFORMATION VOLUMIQUE PLASTIQUE PAR RAPPORT AUX REFERENCES LAWYER

TEST_TABLE(CRITERE='RELATIF',
           REFERENCE='SOURCE_EXTERNE',
           PRECISION=0.27000000000000002,
           VALE_CALC=-2.0949643392161E-09,
           VALE_REFE=-1.828E-09,
           NOM_PARA='V23',
           TABLE=U3,
           FILTRE=_F(CRITERE='ABSOLU',
                     PRECISION=9.0E-05,
                     NOM_PARA='INST',
                     VALE=10.0,),
           )

TEST_TABLE(CRITERE='RELATIF',
           REFERENCE='SOURCE_EXTERNE',
           PRECISION=0.27000000000000002,
           VALE_CALC=-2.0949643392161E-09,
           VALE_REFE=-1.8280000000000001E-09,
           NOM_PARA='V23',
           TABLE=U3,
           FILTRE=_F(CRITERE='ABSOLU',
                     PRECISION=9.0E-05,
                     NOM_PARA='INST',
                     VALE=20.0,),
           )

TEST_TABLE(CRITERE='RELATIF',
           REFERENCE='SOURCE_EXTERNE',
           PRECISION=0.1,
           VALE_CALC=-6.0203500372932E-09,
           VALE_REFE=-5.7399999999999996E-09,
           NOM_PARA='V23',
           TABLE=U3,
           FILTRE=_F(CRITERE='ABSOLU',
                     PRECISION=9.0E-05,
                     NOM_PARA='INST',
                     VALE=30.0,),
           )

TEST_TABLE(CRITERE='RELATIF',
           REFERENCE='SOURCE_EXTERNE',
           PRECISION=0.1,
           VALE_CALC=-6.0203500372932E-09,
           VALE_REFE=-5.7399999999999996E-09,
           NOM_PARA='V23',
           TABLE=U3,
           FILTRE=_F(CRITERE='ABSOLU',
                     PRECISION=9.0E-05,
                     NOM_PARA='INST',
                     VALE=40.0,),
           )

TEST_TABLE(CRITERE='RELATIF',
           REFERENCE='SOURCE_EXTERNE',
           PRECISION=0.080000000000000002,
           VALE_CALC=-1.0116005634673E-08,
           VALE_REFE=-9.6509999999999999E-09,
           NOM_PARA='V23',
           TABLE=U3,
           FILTRE=_F(CRITERE='ABSOLU',
                     PRECISION=9.0E-05,
                     NOM_PARA='INST',
                     VALE=50.0,),
           )

FIN();
