# CAS TEST SSNV508C 
# TITRE BLOC AVEC INTERFACE EN TRACTION ET PRESSION LATERALE SANS CONTACT
#            CONFIGURATION MANAGEMENT OF EDF VERSION
# ======================================================================
# COPYRIGHT (C) 1991 - 2012  EDF R&D                  WWW.CODE-ASTER.ORG
# THIS PROGRAM IS FREE SOFTWARE; YOU CAN REDISTRIBUTE IT AND/OR MODIFY  
# IT UNDER THE TERMS OF THE GNU GENERAL PUBLIC LICENSE AS PUBLISHED BY  
# THE FREE SOFTWARE FOUNDATION; EITHER VERSION 2 OF THE LICENSE, OR     
# (AT YOUR OPTION) ANY LATER VERSION.                                                    
#                                                                       
# THIS PROGRAM IS DISTRIBUTED IN THE HOPE THAT IT WILL BE USEFUL, BUT   
# WITHOUT ANY WARRANTY; WITHOUT EVEN THE IMPLIED WARRANTY OF            
# MERCHANTABILITY OR FITNESS FOR A PARTICULAR PURPOSE. SEE THE GNU      
# GENERAL PUBLIC LICENSE FOR MORE DETAILS.                              
#                                                                       
# YOU SHOULD HAVE RECEIVED A COPY OF THE GNU GENERAL PUBLIC LICENSE     
# ALONG WITH THIS PROGRAM; IF NOT, WRITE TO EDF R&D CODE_ASTER,         
#    1 AVENUE DU GENERAL DE GAULLE, 92141 CLAMART CEDEX, FRANCE.        
# ======================================================================
# FROTTEMENT AVEC DES ELEMENTS X-FEM QUADRATIQUES

DEBUT(CODE=_F(NOM='SSNV508C', NIV_PUB_WEB='INTERNET'),DEBUG=_F(SDVERI='OUI'))



# CETTE MODELISATION TESTE LA DEFORMEE DE L'INTERFACE SUR UN MAILLAGE
# CUB8, LES MAILLES N'ETANT PAS COUPEES PAR L'INTERFACE.



#----------------------------------------------
#                   MAILLAGE
#----------------------------------------------
# dimensions de la structure
#lx = 2.0;ly = 3.0;lz = 0.01.








MAILLAG1=LIRE_MAILLAGE(FORMAT='MED',INFO=1);

MAILLAG1=MODI_MAILLAGE(reuse =MAILLAG1,
                       MAILLAGE=MAILLAG1,
                       ORIE_PEAU_3D=_F(GROUP_MA=('S1','S2','S3','S4','S6')));

MAILLAG1=DEFI_GROUP(reuse =MAILLAG1,
                    MAILLAGE=MAILLAG1,
                    CREA_GROUP_NO= _F(GROUP_MA=('MTOT'),
                                      NOM='VOL'),
                                      );




MAILLAG1=DEFI_GROUP(reuse =MAILLAG1,
                   MAILLAGE=MAILLAG1,
                   CREA_GROUP_NO=(_F(NOM='S7',
                   OPTION='PLAN',
                   POINT =(0,0,0),
                   VECT_NORMALE =(1,0,0),
                   PRECISION=0.000001)));
#----------------------------------------------
#                   MODELE ET FISSURE
#----------------------------------------------

MO=AFFE_MODELE(MAILLAGE=MAILLAG1,
               AFFE=_F(GROUP_MA=('MTOT','S1','S2','S3','S4','S6'),
                       PHENOMENE='MECANIQUE',
                       MODELISATION='3D'));


LN = FORMULE(NOM_PARA=('X','Y','Z'),VALE='Y');

FISS=DEFI_FISS_XFEM(MODELE=MO,
                    TYPE_DISCONTINUITE='INTERFACE',
                    DEFI_FISS=_F(FONC_LN=LN),
                    GROUP_MA_ENRI='MTOT',
                    INFO=1);

MODELEK=MODI_MODELE_XFEM(MODELE_IN=MO,
                         FISSURE=FISS,
                         INFO=1);

#----------------------------------------------
#                   MATERIAU
#----------------------------------------------

E = 10000000000.0;

nu = 0.2;

rho = 7800.0;


ACIER=DEFI_MATERIAU(
                    ELAS=_F(E=E,
                            NU=nu,
                            RHO=rho));


#----------------------------------------------
#                   CHARGEMENTS
#----------------------------------------------

CHAMPMAT=AFFE_MATERIAU(MAILLAGE=MAILLAG1,
                       MODELE=MO,
                       AFFE=_F(GROUP_MA=('MTOT','S1','S2','S3','S4','S6'),
                               MATER=ACIER));
#PLAN ABCD, X=0 BLOQUEE, PLAQUE INFERIEURE ENCASTREMENT

CH1=AFFE_CHAR_MECA(MODELE=MODELEK,
                DDL_IMPO=( _F(GROUP_MA='S6',DZ=0.0),
                           _F(GROUP_NO='S7',DX=0.0),
                           _F(GROUP_MA='S4',DX=0.0,DY=0.0,DZ=0.0)),INFO=1);
d0 = 1.E-05 ;
d2 = -2.5 * 1.E-06 ;


def deplv(x) :
   if x<0.  :  return d2*x*x + d0
   if x>0.  :  return d2*x*x + d0
   if x==0. :  return d2*x*x + d0

FCTDEPLV = FORMULE(VALE='deplv(X)',
                  NOM_PARA=('X','Y','Z'));
ZERO = FORMULE(VALE='0.',NOM_PARA=('X','Y','Z'));


# CONDITION LIMITE SUR LA SURFACE S3

CH2=AFFE_CHAR_MECA_F(MODELE=MODELEK,
                     FACE_IMPO=_F(GROUP_MA='S3',DY=FCTDEPLV),INFO=1);
#pression lineaire : une variable independante

p2=100000.;
p1=2.*E*d2;

def pr1(y) :
   if y<0.  :  return 0.
   if y>0.  :  return  - p1*y - p2
   if y==0.  :  return  0.
FCTPR1 = FORMULE(VALE='pr1(Y)',
                  NOM_PARA=('X','Y','Z'));

def pr2(y) :
   if y<0.  :  return 0.
   if y>0.  :  return   p1*y + p2
   if y==0.  :  return  0.
FCTPR2 = FORMULE(VALE='pr2(Y)',
                  NOM_PARA=('X','Y','Z'));



# PRESSION IMPOSEE SUR S2 ET S1

CH3=AFFE_CHAR_MECA_F(MODELE=MODELEK,
                  FORCE_FACE=_F(GROUP_MA=('S1'),FX=FCTPR1),INFO=1);

CH4=AFFE_CHAR_MECA_F(MODELE=MODELEK,
                  FORCE_FACE=_F(GROUP_MA=('S2'),FX=FCTPR2),INFO=1);
#----------------------------------------------
#                   RESOLUTION
#----------------------------------------------

L_INS=DEFI_LIST_REEL(DEBUT=0.0,
                     INTERVALLE=_F(JUSQU_A=1.0,
                                   NOMBRE=1));

UTOT1=STAT_NON_LINE(MODELE=MODELEK,
                    CHAM_MATER=CHAMPMAT,
                    EXCIT=(
                           _F(CHARGE=CH1),
                           _F(CHARGE=CH2),
                           _F(CHARGE=CH3),
                           _F(CHARGE=CH4)),
                    COMP_ELAS=_F(RELATION='ELAS',
                                 GROUP_MA='MTOT'),
                    INCREMENT=_F(LIST_INST=L_INS,
                                 INST_FIN=1.0),
                    NEWTON=_F(REAC_ITER=1),
                    CONVERGENCE=_F(RESI_GLOB_RELA=1E-6,
                                   ARRET='OUI'),
                    SOLVEUR=_F(METHODE='MUMPS'),INFO=1);
DEP=POST_RELEVE_T(ACTION=_F(INTITULE='DEPLE',
                                GROUP_NO='VOL',
                                RESULTAT=UTOT1,
                                NOM_CHAM='DEPL',
                                NUME_ORDRE=1,
                                TOUT_CMP='OUI',
                                OPERATION='EXTRACTION'));

IMPR_TABLE(TABLE=DEP);

#----------------------------------------------
#             IMPRESSION
#----------------------------------------------

MA_XFEM=POST_MAIL_XFEM(MODELE        = MODELEK)

IMPR_RESU(FORMAT='RESULTAT',RESU=_F(MAILLAGE = MA_XFEM))

MOD_VISU=AFFE_MODELE(MAILLAGE=MA_XFEM,
                     AFFE=(_F(GROUP_MA=('MTOT','S1','S2','S3','S4','S6'),
                              PHENOMENE='MECANIQUE',
                              MODELISATION='3D')));  

RES_X1=POST_CHAM_XFEM(MODELE_VISU   = MOD_VISU,
                        RESULTAT      = UTOT1,
                        )

IMPR_RESU(FORMAT='MED',UNITE=80,RESU=_F(RESULTAT=RES_X1));
IMPR_RESU(FORMAT='GMSH',UNITE=81,RESU=_F(MAILLAGE = MA_XFEM));
IMPR_RESU(FORMAT='GMSH',UNITE=82,RESU=_F(RESULTAT=RES_X1));

#----------------------------------------------
#                  TESTS
#----------------------------------------------

DEP1=POST_RELEVE_T(ACTION=_F(INTITULE='DEPLE',
                                GROUP_NO=('NFISSU'),
                                RESULTAT=RES_X1,
                                NOM_CHAM='DEPL',
                                NUME_ORDRE=1,
                                TOUT_CMP='OUI',
                                OPERATION='EXTRACTION'));

DEP2 = CALC_TABLE(TABLE = DEP1,
                  ACTION = (_F(OPERATION = 'FILTRE',
                               NOM_PARA  = 'NOEUD',
                               CRIT_COMP = 'REGEXP',
                               VALE_K    = 'N[^M]'),
                            _F(OPERATION = 'FILTRE',
                               NOM_PARA  = 'DY',
                               CRIT_COMP = 'NE',
                               VALE      = 0)));

#DX=(-10*x + 0)*1.E-6

DXMIN= -10*1.E-6
DXMAX=10*1.E-6

TEST_TABLE(CRITERE='ABSOLU',
           REFERENCE='ANALYTIQUE',
           PRECISION=1.E-10,
           VALE_CALC= 1.0000000007E-05,
           VALE_REFE=9.9999999999999991E-06,
           TOLE_MACHINE=1.E-10,
           NOM_PARA='DX',
           TYPE_TEST='MAX',
           TABLE=DEP2,)

TEST_TABLE(CRITERE='ABSOLU',
           REFERENCE='ANALYTIQUE',
           PRECISION=1.E-10,
           VALE_CALC=-1.0000000004E-05,
           VALE_REFE=-9.9999999999999991E-06,
           TOLE_MACHINE=1.E-10,
           NOM_PARA='DX',
           TYPE_TEST='MIN',
           TABLE=DEP2,)

#DY=8.02*1.E-6 - 2.5*1.E-6*x*x*1.E-6-1/3 *z*z*1.E-6

DYMIN=8.02*1.E-6 - 2.5*1.E-6-(1/3)*0.01*0.01*1.E-6
DYMAX=8.02*1.E-6

TEST_TABLE(CRITERE='ABSOLU',
           REFERENCE='ANALYTIQUE',
           PRECISION=1.E-10,
           VALE_CALC= 5.5199833272E-06,
           VALE_REFE=5.5199999999999997E-06,
           TOLE_MACHINE=1.E-10,
           NOM_PARA='DY',
           TYPE_TEST='MIN',
           TABLE=DEP2,)

TEST_TABLE(CRITERE='ABSOLU',
           REFERENCE='ANALYTIQUE',
           PRECISION=1.E-10,
           VALE_CALC= 8.0200333366E-06,
           VALE_REFE=8.0199999999999994E-06,
           TOLE_MACHINE=1.E-10,
           NOM_PARA='DY',
           TYPE_TEST='MAX',
           TABLE=DEP2,)

DZMIN=-2*1.E-8
TEST_TABLE(CRITERE='ABSOLU',
           REFERENCE='ANALYTIQUE',
           PRECISION=1.E-10,
           VALE_CALC=-2.0000000023E-08,
           VALE_REFE=-2.E-08,
           TOLE_MACHINE=1.E-10,
           NOM_PARA='DZ',
           TYPE_TEST='MIN',
           TABLE=DEP2,)

TEST_RESU(RESU=(_F(NUME_ORDRE=1,
                   TYPE_TEST='SOMM_ABS',
                   RESULTAT=RES_X1,
                   NOM_CHAM='DEPL',
                   NOM_CMP='DX',
                   VALE_CALC=0.017430000000000001,
                   
                   CRITERE='RELATIF',
                   ),
                _F(NUME_ORDRE=1,
                   TYPE_TEST='SOMM_ABS',
                   RESULTAT=RES_X1,
                   NOM_CHAM='DEPL',
                   NOM_CMP='DY',
                   VALE_CALC=0.047754600000000001,
                   
                   CRITERE='RELATIF',
                   ),
                _F(NUME_ORDRE=1,
                   TYPE_TEST='SOMM_ABS',
                   RESULTAT=RES_X1,
                   NOM_CHAM='DEPL',
                   NOM_CMP='DZ',
                   VALE_CALC=3.4037859999999999E-05,
                   
                   CRITERE='RELATIF',
                   ),
                ),
          )

IMPR_TABLE(TABLE=DEP2,
           FORMAT='AGRAF',
           FORMAT_R='1PE12.5',
           IMPR_FONCTION='NON');


FIN();
