# MODIF  DATE 10/10/2012   AUTEUR COURTOIS M.COURTOIS 
# TITRE FISSURE DEBOUCHANTE DANS UNE PLAQUE 3D DE LARGEUR FINIE AVEC X-FEM
# ssnv185a.para = tps_job 300 mem_job 768Mo ncpus 1 liste_test S
#            CONFIGURATION MANAGEMENT OF EDF VERSION
# ======================================================================
# COPYRIGHT (C) 1991 - 2012  EDF R&D                  WWW.CODE-ASTER.ORG
# THIS PROGRAM IS FREE SOFTWARE; YOU CAN REDISTRIBUTE IT AND/OR MODIFY  
# IT UNDER THE TERMS OF THE GNU GENERAL PUBLIC LICENSE AS PUBLISHED BY  
# THE FREE SOFTWARE FOUNDATION; EITHER VERSION 2 OF THE LICENSE, OR     
# (AT YOUR OPTION) ANY LATER VERSION.                                                    
#                                                                       
# THIS PROGRAM IS DISTRIBUTED IN THE HOPE THAT IT WILL BE USEFUL, BUT   
# WITHOUT ANY WARRANTY; WITHOUT EVEN THE IMPLIED WARRANTY OF            
# MERCHANTABILITY OR FITNESS FOR A PARTICULAR PURPOSE. SEE THE GNU      
# GENERAL PUBLIC LICENSE FOR MORE DETAILS.                              
#                                                                       
# YOU SHOULD HAVE RECEIVED A COPY OF THE GNU GENERAL PUBLIC LICENSE     
# ALONG WITH THIS PROGRAM; IF NOT, WRITE TO EDF R&D CODE_ASTER,         
#    1 AVENUE DU GENERAL DE GAULLE, 92141 CLAMART CEDEX, FRANCE.        
# ======================================================================

DEBUT(CODE=_F(NOM='SSNV185A',NIV_PUB_WEB='INTERNET',VISU_EFICAS='NON'),DEBUG=_F(SDVERI='OUI'));

# MODELISATION A : FEM - TRACTION (FACE SUP, LEVRES, CHAMP ASYMPTOTIQUE)

#----------------------------------------------
#             MAILLAGE : hexa_cla_5_30_50.mgib
#----------------------------------------------

MAILLAGE=LIRE_MAILLAGE(FORMAT='MED',INFO=1,);

MAILLAGE=DEFI_GROUP(reuse =MAILLAGE,
                    MAILLAGE=MAILLAGE,
                    CREA_GROUP_NO=(_F(GROUP_MA='LEVSUP',),
                                   _F(GROUP_MA='LEVINF',),
                                   _F(GROUP_MA='FONFIS',),
                                   _F(GROUP_MA='VOL',),
                                   _F(DIFFE=('LEVSUP','FONFIS'),NOM='LEVS',),
                                   _F(DIFFE=('LEVINF','FONFIS'),NOM='LEVI',),
                                   _F(DIFFE=('VOL','LEVSUP','LEVINF'),NOM='VOLB',),                    
                                    ),);

#----------------------------------------------
#                   MODELE 
#----------------------------------------------

MODELEIN=AFFE_MODELE(MAILLAGE=MAILLAGE,
                   AFFE=_F(GROUP_MA=('VOLSUP','VOLINF','LEVSUP','LEVINF','SURFSUP','SURFINF','FONFIS',),
                            PHENOMENE='MECANIQUE',
                            MODELISATION='3D',),);

MAILLAGE=MODI_MAILLAGE(reuse =MAILLAGE,
                       MAILLAGE=MAILLAGE,
                       ORIE_PEAU_3D=_F(GROUP_MA=('LEVSUP','LEVINF','SURFSUP','SURFINF'),),
                       );

#----------------------------------------------
#                   MATERIAU
#----------------------------------------------

E=205000.E6
nu=0.
ACIER=DEFI_MATERIAU(ELAS=_F(E=E,NU=nu,RHO=7800.0,),);

CHAMPMA=AFFE_MATERIAU(MAILLAGE=MAILLAGE,
                       MODELE=MODELEIN,
                       AFFE=(_F(GROUP_MA=('VOLSUP','VOLINF','LEVSUP','LEVINF','SURFSUP','SURFINF','FONFIS',),
                                MATER=ACIER,
                                ),
                             ),);

#----------------------------------------------
#                   CHARGEMENTS 
#----------------------------------------------

#                   1) TRACTION

PRES=-1.E6 
CHARBL1=AFFE_CHAR_MECA(MODELE=MODELEIN,
                   DDL_IMPO=(_F(NOEUD='N4265',DX=0.0,DY=0.0,DZ=0.0,),
                             _F(NOEUD='N3751',DZ=0.0,),
                             _F(NOEUD='N4256',DX=0.0,DZ=0.0,),),);
                             
CHF1=AFFE_CHAR_MECA(MODELE=MODELEIN,PRES_REP=_F(GROUP_MA=('SURFSUP','SURFINF',),PRES=PRES,),);



#                   2) CHAMP AUXILAIRE MODE I

R = FORMULE(NOM_PARA=('X','Y','Z'),VALE='sqrt((Y-5.)**2+(Z-15.)**2)');
T = FORMULE(NOM_PARA=('X','Y','Z'),VALE='atan2(Z-15.,-Y+5.)');
   
coef=(1+nu)/(E*sqrt(2.*pi))

# FORMULES GENERALES DU MODE I
OUAUX1 = FORMULE(NOM_PARA=('X','Y','Z'),VALE='-1.*coef*sqrt(R(X,Y,Z))*cos(T(X,Y,Z)/2.)*(3.-4.*nu-cos(T(X,Y,Z)))');
UAUX2 = FORMULE(NOM_PARA=('X','Y','Z'),VALE=' coef*sqrt(R(X,Y,Z))*sin(T(X,Y,Z)/2.)*(3.-4.*nu-cos(T(X,Y,Z)))');
UAUX3 = FORMULE(NOM_PARA=('X','Y','Z'),VALE='0.');

# FORMULES POUR LES NOEUDS DE LA LEVRE SUP (MOINS LE FOND DE FISSURE) : THETA=PI 
OUAUX1S = FORMULE(NOM_PARA=('X','Y','Z'),VALE='-1.*coef*sqrt(R(X,Y,Z))*cos(pi/2.)*(3.-4.*nu-cos(pi))');
UAUX2S = FORMULE(NOM_PARA=('X','Y','Z'),VALE=' coef*sqrt(R(X,Y,Z))*sin(pi/2.)*(3.-4.*nu-cos(pi))');
UAUX3S = FORMULE(NOM_PARA=('X','Y','Z'),VALE='0.');

# FORMULES POUR LES NOEUDS DE LA LEVRE INF (MOINS LE FOND DE FISSURE) : THETA=-PI 
OUAUX1I = FORMULE(NOM_PARA=('X','Y','Z'),VALE='-1.*coef*sqrt(R(X,Y,Z))*cos(-pi/2.)*(3.-4.*nu-cos(-pi))');
UAUX2I = FORMULE(NOM_PARA=('X','Y','Z'),VALE=' coef*sqrt(R(X,Y,Z))*sin(-pi/2.)*(3.-4.*nu-cos(-pi))');
UAUX3I = FORMULE(NOM_PARA=('X','Y','Z'),VALE='0.');

CHARBL2=AFFE_CHAR_MECA(MODELE=MODELEIN,DDL_IMPO=_F(GROUP_MA='FONFIS',DX=0.0,DY=0.0,DZ=0.0,),);
                             
CHF2=AFFE_CHAR_MECA_F(MODELE=MODELEIN,DDL_IMPO=(_F(GROUP_NO='VOLB',DX=UAUX3,DY=OUAUX1,DZ=UAUX2,),
                                               _F(GROUP_NO='LEVS',DX=UAUX3S,DY=OUAUX1S,DZ=UAUX2S,),
                                               _F(GROUP_NO='LEVI',DX=UAUX3I,DY=OUAUX1I,DZ=UAUX2I,),
                                               ),);              
              
#                   3) PRESSION CONSTANTE SUR LES LEVRES
CHPRES=AFFE_CHAR_MECA(MODELE=MODELEIN,PRES_REP=_F(GROUP_MA=('LEVSUP','LEVINF',),PRES=1.e6,),);

#                   4) PRESSION FONCTION SUR LES LEVRES
PRESF=FORMULE(NOM_PARA=('X','Y','Z'),VALE='1.e6*(1.-X)');
CHPRESF=AFFE_CHAR_MECA_F(MODELE=MODELEIN,PRES_REP=_F(GROUP_MA=('LEVSUP','LEVINF',),PRES=PRESF,),);


              
#----------------------------------------------
#                   RESOLUTIONS
#----------------------------------------------

UTOT1=MECA_STATIQUE(MODELE=MODELEIN,
                   CHAM_MATER=CHAMPMA,              
                   EXCIT=(_F(CHARGE=CHARBL1,),
                          _F(CHARGE=CHF1,),),
                   INST=1.0,
                   INFO=1,);

UTOT2=MECA_STATIQUE(MODELE=MODELEIN,
                   CHAM_MATER=CHAMPMA,              
                   EXCIT=(_F(CHARGE=CHARBL2,),
                          _F(CHARGE=CHF2,),),
                   INST=1.0,
                   INFO=1,);

UTOT3=MECA_STATIQUE(MODELE=MODELEIN,
                   CHAM_MATER=CHAMPMA,              
                   EXCIT=(_F(CHARGE=CHARBL1,),
                          _F(CHARGE=CHPRES,),),
                   INST=1.0,
                   INFO=1,);

UTOT4=MECA_STATIQUE(MODELE=MODELEIN,
                   CHAM_MATER=CHAMPMA,              
                   EXCIT=(_F(CHARGE=CHARBL1,),
                          _F(CHARGE=CHPRESF,),),
                   INST=1.0,
                   INFO=1,);

IMPR_RESU(FORMAT='GMSH',UNITE=37,RESU=_F(RESULTAT=UTOT4,NOM_CHAM='DEPL'))

#------------------------------------------------------------------------
# POST-TRAITEMENT : CALCUL DES SIFS PAR LA METHODE ENERGETIQUE AVEC X-FEM
#------------------------------------------------------------------------

FISS=DEFI_FOND_FISS(MAILLAGE=MAILLAGE,
                    FOND_FISS=_F(GROUP_NO='FONFIS',),
                    LEVRE_SUP=_F(GROUP_MA='LEVSUP',),
                    LEVRE_INF=_F(GROUP_MA='LEVINF',),
                    )


# TEST AVEC PLUSIEURS COURONNES
RI=[2. , 0.666 , 1. , 1. , 1. , 2.1]
RS=[4. , 1.666 , 2. , 3. , 4. , 3.9]

nbc=len(RI)
SIF1 = [None]*nbc
SIF2 = [None]*nbc
SIF3 = [None]*nbc
SIF4 = [None]*nbc

for i in range(0,nbc) :
   
   SIF1[i]=CALC_G(RESULTAT=UTOT1,
                  OPTION='CALC_K_G',
                  LISSAGE = _F(LISSAGE_THETA='LAGRANGE',
                               LISSAGE_G='LAGRANGE',),
                  THETA=_F(R_INF=RI[i],
                           R_SUP=RS[i],
                           FOND_FISS=FISS,),);

   IMPR_TABLE(TABLE=SIF1[i],);

   SIF2[i]=CALC_G(RESULTAT=UTOT2,
                  OPTION='CALC_K_G',
                  LISSAGE = _F(LISSAGE_THETA='LAGRANGE',
                               LISSAGE_G='LAGRANGE',),
                  THETA=_F(R_INF=RI[i],
                           R_SUP=RS[i],
                  FOND_FISS=FISS,),);

   IMPR_TABLE(TABLE=SIF2[i],);

   SIF3[i]=CALC_G(RESULTAT=UTOT3,
                  OPTION='CALC_K_G',
                  LISSAGE = _F(LISSAGE_THETA='LAGRANGE',
                               LISSAGE_G='LAGRANGE',),
                  THETA=_F(R_INF=RI[i],
                           R_SUP=RS[i],
                  FOND_FISS=FISS,),);

   IMPR_TABLE(TABLE=SIF3[i],);

   SIF4[i]=CALC_G(RESULTAT=UTOT4,
                  OPTION='CALC_K_G',
                  LISSAGE = _F(LISSAGE_THETA='LAGRANGE',
                               LISSAGE_G='LAGRANGE',),
                  THETA=_F(R_INF=RI[i],
                           R_SUP=RS[i],
                  FOND_FISS=FISS,),);

   IMPR_TABLE(TABLE=SIF4[i],);
   
#                   SOLUTIONS ANALYTIQUES DE K1 :
# POUR LES CHARGEMENT 1 & 3 : VOIR CHABOCHE P.53
a=5
b=10
coef1=(pi*a)/(2.*b)
fab=sqrt(tan(coef1)/coef1)*(0.752+0.37*(1.-sin(coef1))**3+2.02*a/b)/cos(coef1)
K1REF1=-PRES*sqrt(pi*a)*fab

# POUR LE CHARGEMENT 2
K1REF2=1.

# POUR LE CHARGEMENT 4, NON-REGRESSION
# AU POINT INITIAL DU FOND DE FISSURE
K1REF4I=5.99e6
# AU POINT FINAL DU FOND DE FISSURE
K1REF4F=4.52e6

for i in range(0,nbc) :
   TEST_TABLE(TABLE=SIF1[i],
              NOM_PARA='K1',
              TYPE_TEST='MAX', 
              FILTRE = _F(NOM_PARA='NUME_ORDRE',VALE_I=1),              
              VALE_CALC=K1REF1, VALE_REFE=K1REF1,
              CRITERE='RELATIF',
              TOLE_MACHINE=0.065, PRECISION=0.065,   #TODO vale_calc
              REFERENCE='ANALYTIQUE',);

   TEST_TABLE(TABLE=SIF1[i],
              NOM_PARA='K1',
              TYPE_TEST='MIN', 
              FILTRE = _F(NOM_PARA='NUME_ORDRE',VALE_I=1),              
              VALE_CALC=K1REF1, VALE_REFE=K1REF1,
              CRITERE='RELATIF',
              TOLE_MACHINE=0.065, PRECISION=0.065,   #TODO vale_calc
              REFERENCE='ANALYTIQUE',);
              
   TEST_TABLE(TABLE=SIF2[i],
              NOM_PARA='K1',
              TYPE_TEST='MAX',               
              FILTRE = _F(NOM_PARA='NUME_ORDRE',VALE_I=1),
              VALE_CALC=K1REF2, VALE_REFE=K1REF2,
              CRITERE='RELATIF',
              TOLE_MACHINE=0.002, PRECISION=0.002,   #TODO vale_calc
              REFERENCE='ANALYTIQUE',);

   TEST_TABLE(TABLE=SIF2[i],
              NOM_PARA='K1',
              TYPE_TEST='MIN', 
              FILTRE = _F(NOM_PARA='NUME_ORDRE',VALE_I=1),              
              VALE_CALC=K1REF2, VALE_REFE=K1REF2,
              CRITERE='RELATIF',
              TOLE_MACHINE=0.002, PRECISION=0.002,   #TODO vale_calc
              REFERENCE='ANALYTIQUE',);           

   TEST_TABLE(TABLE=SIF3[i],
              NOM_PARA='K1',
              TYPE_TEST='MAX',               
              FILTRE = _F(NOM_PARA='NUME_ORDRE',VALE_I=1),
              VALE_CALC=K1REF1, VALE_REFE=K1REF1,
              CRITERE='RELATIF',
              TOLE_MACHINE=0.065, PRECISION=0.065,   #TODO vale_calc
              REFERENCE='ANALYTIQUE',);

   TEST_TABLE(TABLE=SIF3[i],
              NOM_PARA='K1',
              TYPE_TEST='MIN', 
              FILTRE = _F(NOM_PARA='NUME_ORDRE',VALE_I=1),              
              VALE_CALC=K1REF1, VALE_REFE=K1REF1,
              CRITERE='RELATIF',
              TOLE_MACHINE=0.065, PRECISION=0.065,   #TODO vale_calc
              REFERENCE='ANALYTIQUE',);

   TEST_TABLE(TABLE=SIF4[i],
              NOM_PARA='K1',
              FILTRE=(_F(NOM_PARA='NUM_PT',VALE_I=1,),
                     _F(NOM_PARA='NUME_ORDRE',VALE_I=1),),
              VALE_CALC=K1REF4I,
              CRITERE='RELATIF',
              TOLE_MACHINE=0.002,);

   TEST_TABLE(TABLE=SIF4[i],
              NOM_PARA='K1',
              FILTRE=(_F(NOM_PARA='NUM_PT',VALE_I=6,),
              _F(NOM_PARA='NUME_ORDRE',VALE_I=1),),
              VALE_CALC=K1REF4F,
              CRITERE='RELATIF',
              TOLE_MACHINE=0.002,);

FIN();

