# TITRE TOLE ONDULEE EN TRACTION (MISES ECR. ISOT. 2D)
# ======================================================================
# COPYRIGHT (C) 1991 - 2013  EDF R&D                  WWW.CODE-ASTER.ORG
# THIS PROGRAM IS FREE SOFTWARE; YOU CAN REDISTRIBUTE IT AND/OR MODIFY
# IT UNDER THE TERMS OF THE GNU GENERAL PUBLIC LICENSE AS PUBLISHED BY
# THE FREE SOFTWARE FOUNDATION; EITHER VERSION 2 OF THE LICENSE, OR
# (AT YOUR OPTION) ANY LATER VERSION.
#
# THIS PROGRAM IS DISTRIBUTED IN THE HOPE THAT IT WILL BE USEFUL, BUT
# WITHOUT ANY WARRANTY; WITHOUT EVEN THE IMPLIED WARRANTY OF
# MERCHANTABILITY OR FITNESS FOR A PARTICULAR PURPOSE. SEE THE GNU
# GENERAL PUBLIC LICENSE FOR MORE DETAILS.
#
# YOU SHOULD HAVE RECEIVED A COPY OF THE GNU GENERAL PUBLIC LICENSE
# ALONG WITH THIS PROGRAM; IF NOT, WRITE TO EDF R&D CODE_ASTER,
#    1 AVENUE DU GENERAL DE GAULLE, 92141 CLAMART CEDEX, FRANCE.
# ======================================================================

DEBUT(CODE=_F(NOM='SSNV115A',
              NIV_PUB_WEB='INTERNET',),
      DEBUG=_F(SDVERI='OUI',),);

M=LIRE_MAILLAGE(FORMAT='MED',
                VERI_MAIL=_F(VERIF='OUI',),);

M=DEFI_GROUP(reuse =M,
             MAILLAGE=M,
             CREA_GROUP_NO=_F(TOUT_GROUP_MA='OUI',),);

MO=AFFE_MODELE(MAILLAGE=M,
               AFFE=_F(TOUT='OUI',
                       PHENOMENE='MECANIQUE',
                       MODELISATION='D_PLAN',),);

ACIER=DEFI_MATERIAU(ELAS=_F(E=2000.,
                            NU=0.3,),
                    ECRO_LINE=_F(D_SIGM_EPSI=200.,
                                 SY=100.,),);

CM=AFFE_MATERIAU(MAILLAGE=M,
                 AFFE=_F(TOUT='OUI',
                         MATER=ACIER,),);

CH_LIM=AFFE_CHAR_MECA(MODELE=MO,
                      DDL_IMPO=(_F(GROUP_NO='BOUT1',
                                   DX=0.,),
                                _F(GROUP_NO='PO',
                                   DY=0.,),),);

CH_FO=AFFE_CHAR_MECA(MODELE=MO,
                     FORCE_CONTOUR=_F(GROUP_MA='BOUT2',
                                      FX=100.,),);

RAMPE=DEFI_FONCTION(NOM_PARA='INST',
                    VALE=(0.0,0.0,
                          1.0,1.0,
                          ),
                    PROL_DROITE='LINEAIRE',PROL_GAUCHE='LINEAIRE',);

L_INST=DEFI_LIST_REEL(DEBUT=0.0,
                      INTERVALLE=_F(JUSQU_A=1.0,
                                    NOMBRE=10,),);

# STAT_NON_LINE 'VMIS'
#---------------------

U2=STAT_NON_LINE(MODELE=MO,
                 CHAM_MATER=CM,
                 EXCIT=(_F(CHARGE=CH_FO,
                           FONC_MULT=RAMPE,),
                        _F(CHARGE=CH_LIM,),),
                 COMP_INCR=_F(RELATION='VMIS_ISOT_LINE',),
                 INCREMENT=_F(LIST_INST=L_INST,
                              NUME_INST_FIN=5,),
                 METHODE='NEWTON_KRYLOV',
                 RECH_LINEAIRE=_F(),
                 NEWTON=_F(MATRICE='TANGENTE',
                           REAC_ITER=4,),
                 SOLVEUR=_F(METHODE='GCPC',),);

U2=CALC_CHAMP(reuse =U2,
              RESULTAT=U2,
              CONTRAINTE='SIGM_ELNO',
              VARI_INTERNE='VARI_ELNO',);

#==============================================================
# POUR TESTER L'IMPRESSION DU RESULTAT AUX POINTS DE GAUSS:
# ----------------------------------------------------------

MACR_ECLA_PG(RESU_INIT=U2,
             MODELE_INIT=MO,
             NOM_CHAM=('SIEF_ELGA','VARI_ELGA',),
             RESULTAT=CO('U2B'),
             MAILLAGE=CO('MA2'),);


TEST_RESU(RESU=(_F(RESULTAT=U2B,
                   NUME_ORDRE=1,
                   NOM_CHAM='SIEF_ELGA',
                   TYPE_TEST='SOMM_ABS',
                   VALE_CALC=48637.811045154,),
                _F(RESULTAT=U2B,
                   NUME_ORDRE=5,
                   NOM_CHAM='SIEF_ELGA',
                   TYPE_TEST='SOMM_ABS',
                   VALE_CALC=2.6551421242164E+05,),
                _F(RESULTAT=U2B,
                   NUME_ORDRE=5,
                   NOM_CHAM='VARI_ELGA',
                   TYPE_TEST='SOMM_ABS',
                   VALE_CALC=572.20643834078,),),);

#==============================================================
# IMPRESSION DU RESULTAT SUR UN BOUT DU MAILLAGE
# ----------------------------------------------------------

MA3=CREA_MAILLAGE(MAILLAGE=M,
                  ECLA_PG=_F(MODELE=MO,
                             GROUP_MA='EXTR1',
                             SHRINK=0.90,
                             TAILLE_MIN=0.1,),);


U3B=CREA_RESU(OPERATION='ECLA_PG',
              TYPE_RESU='EVOL_NOLI',
              ECLA_PG=_F(NOM_CHAM=('SIEF_ELGA','VARI_ELGA',),
                         MODELE_INIT=MO,
                         GROUP_MA='EXTR1',
                         RESU_INIT=U2,
                         MAILLAGE=MA3,),);


TEST_RESU(RESU=(_F(RESULTAT=U3B,
                   NUME_ORDRE=1,
                   NOM_CHAM='SIEF_ELGA',
                   TYPE_TEST='SOMM_ABS',
                   VALE_CALC=465.26881346422,),
                _F(RESULTAT=U3B,
                   NUME_ORDRE=5,
                   NOM_CHAM='SIEF_ELGA',
                   TYPE_TEST='SOMM_ABS',
                   VALE_CALC=2326.3443106296,),
                _F(RESULTAT=U3B,
                   NUME_ORDRE=5,
                   NOM_CHAM='VARI_ELGA',
                   TYPE_TEST='SOMM_ABS',
                   CRITERE='ABSOLU',
                   VALE_CALC=0.0,),),);

#==============================================================

U2=STAT_NON_LINE(reuse =U2,
                 MODELE=MO,
                 CHAM_MATER=CM,
                 EXCIT=(_F(CHARGE=CH_FO,
                           FONC_MULT=RAMPE,),
                        _F(CHARGE=CH_LIM,),),
                 COMP_INCR=_F(RELATION='VMIS_ISOT_LINE',),
                 ETAT_INIT=_F(EVOL_NOLI=U2,
                              NUME_ORDRE=5,),
                 INCREMENT=_F(LIST_INST=L_INST,
                              NUME_INST_FIN=10,),
                 NEWTON=_F(MATRICE='TANGENTE',
                           REAC_ITER=2,),
                 CONVERGENCE=_F(RESI_GLOB_RELA=1.E-6,),);

U2=CALC_CHAMP(reuse =U2,
              RESULTAT=U2,
              NUME_ORDRE=(6,7,8,9,10,),
              CONTRAINTE='SIGM_ELNO',
              VARI_INTERNE='VARI_ELNO',);

TEST_RESU(RESU=(_F(RESULTAT=U2,
                   NUME_ORDRE=10,
                   NOM_CHAM='SIGM_ELNO',
                   NOM_CMP='SIXX',
                   MAILLE='M1',
                   NOEUD='N249',
                   VALE_CALC=98.453472291187,),
                _F(RESULTAT=U2,
                   NUME_ORDRE=10,
                   NOM_CHAM='VARI_ELNO',
                   NOM_CMP='V1',
                   MAILLE='M13',
                   NOEUD='N226',
                   VALE_CALC=0.17869710609630,),),);

FIN();
