
# MODIF  DATE 13/12/2011   AUTEUR GENIAUT S.GENIAUT 
# TITRE EMBOUTISSAGE D'UNE TOLE PAR UN POINCON HEMISPHERIQUE
# ssnv501a.para = tps_job 100 mem_job 300Mo ncpus 1 liste_test V
#            CONFIGURATION MANAGEMENT OF EDF VERSION
# ======================================================================
# COPYRIGHT (C) 1991 - 2011  EDF R&D                  WWW.CODE-ASTER.ORG
# THIS PROGRAM IS FREE SOFTWARE; YOU CAN REDISTRIBUTE IT AND/OR MODIFY
# IT UNDER THE TERMS OF THE GNU GENERAL PUBLIC LICENSE AS PUBLISHED BY
# THE FREE SOFTWARE FOUNDATION; EITHER VERSION 2 OF THE LICENSE, OR   
# (AT YOUR OPTION) ANY LATER VERSION.                                 
#
# THIS PROGRAM IS DISTRIBUTED IN THE HOPE THAT IT WILL BE USEFUL, BUT 
# WITHOUT ANY WARRANTY; WITHOUT EVEN THE IMPLIED WARRANTY OF          
# MERCHANTABILITY OR FITNESS FOR A PARTICULAR PURPOSE. SEE THE GNU    
# GENERAL PUBLIC LICENSE FOR MORE DETAILS.                            
#
# YOU SHOULD HAVE RECEIVED A COPY OF THE GNU GENERAL PUBLIC LICENSE   
# ALONG WITH THIS PROGRAM; IF NOT, WRITE TO EDF R&D CODE_ASTER,       
#    1 AVENUE DU GENERAL DE GAULLE, 92141 CLAMART CEDEX, FRANCE.      
# ======================================================================
# CAS_TEST: SSNV501A - PAS DE FROTTEMENT
# MODELE 
# MAILLAGE : ELEMENT 2D QUADRANGLE A 4 NOEUDS
#            CONTACT : SEG2
# UNITES   : NEWTON , METRE , SECONDE (N,M,S)
#
#......................................................................
#  CALCUL TEST ELEMENTS FINIS DE CONTACT 2D SEG2
#                                MODELISATION AXIS (QUA4)
#......................................................................
#
#


DEBUT(CODE=_F(NOM='SSNV501A',NIV_PUB_WEB='INTERNET'),);
#  
#


MAILL1=LIRE_MAILLAGE(FORMAT='MED',);

MAILL1=DEFI_GROUP(reuse =MAILL1,
                  MAILLAGE=MAILL1,
                  CREA_GROUP_MA=_F(NOM='SOLIDE',
                                   UNION=('MATRICE','POINCON'),),
                  CREA_GROUP_NO=(_F(GROUP_MA='LC2G',
                                    NOM='LIM11',),
                                 _F(GROUP_MA='LGF',
                                    NOM='LIM12',),
                                 _F(GROUP_MA='LBC1',
                                    NOM='LBC1',),
                                 _F(GROUP_MA='LDA1',
                                    NOM='LIM2',),
                                 _F(GROUP_MA='LA2H',
                                    NOM='LIM3',),
                                 _F(GROUP_MA='LHE',
                                    NOM='LIM4',),),
                  INFO=2,);

MODEL=AFFE_MODELE(MAILLAGE=MAILL1,
                  VERIF='MAILLE',
                  AFFE=_F(TOUT='OUI',
                          PHENOMENE='MECANIQUE',
                          MODELISATION='AXIS',),);

MAILL1=MODI_MAILLAGE(reuse =MAILL1,
                     MAILLAGE=MAILL1,
                     ORIE_PEAU_2D=_F(GROUP_MA='LFC2',),
                     );

MAILL1=MODI_MAILLAGE(reuse =MAILL1,
                     MAILLAGE=MAILL1,
                     ORIE_PEAU_2D=_F(GROUP_MA='LC1D',),
                     );

MAILL1=MODI_MAILLAGE(reuse =MAILL1,
                     MAILLAGE=MAILL1,
                     ORIE_PEAU_2D=_F(GROUP_MA='LEA2',),
                     );

MAILL1=MODI_MAILLAGE(reuse =MAILL1,
                     MAILLAGE=MAILL1,
                     ORIE_PEAU_2D=_F(GROUP_MA='LA1B',),
                     );
#           
#-----------------------------------------------------------------------
#     DEFINITIONS DES CARACTERISTIQUES MATERIAUX ET AFFECTATION
#-----------------------------------------------------------------------
#
#


SI=DEFI_FONCTION(NOM_PARA='EPSI',
                 VALE=(
                        0.0011675 , 80.5592278 ,
                        0.0036675 , 162.8356672 ,
                        0.0061675 , 188.3434203 ,
                        0.0086675 , 205.2915297 ,
                        0.0111675 , 218.2974746 ,
                        0.0136675 , 228.9788303 ,
                        0.0161675 , 238.1081800 ,
                        0.0186675 , 246.1195039 ,
                        0.0211675 , 253.2827677 ,
                        0.0236675 , 259.7782086 ,
                        0.0261675 , 265.7325889 ,
                        0.0286675 , 271.2387014 ,
                        0.0311675 , 276.3666650 ,
                        0.0336675 , 281.1708517 ,
                        0.0361675 , 285.6943370 ,
                        0.0386675 , 289.9718700 ,
                        0.0411675 , 294.0319196 ,
                        0.0436675 , 297.8981239 ,
                        0.0461675 , 301.5903407 ,
                        0.0486675 , 305.1254245 ,
# ... 103 like lines cut
                        ),);


MFLAN=DEFI_MATERIAU(ELAS=_F(E=6.9004E4,
                            NU=0.29999999999999999,),
                    TRACTION=_F(SIGM=SI,),);

MMATRICE=DEFI_MATERIAU(ELAS=_F(E=1.E7,
                               NU=0.29999999999999999,),
                       ECRO_LINE=_F(SY=1.E15,D_SIGM_EPSI=0.)        );

MPOINCON=DEFI_MATERIAU(ELAS=_F(E=1.E7,
                               NU=0.29999999999999999,),
                         ECRO_LINE=_F(SY=1.E15,D_SIGM_EPSI=0.)      );

CM=AFFE_MATERIAU(MAILLAGE=MAILL1,
                 AFFE=(_F(GROUP_MA='FLAN',
                          MATER=MFLAN,),
                       _F(GROUP_MA='MATRICE',
                          MATER=MMATRICE,),
                       _F(GROUP_MA='POINCON',
                          MATER=MPOINCON,),),);
#           
#-----------------------------------------------------------------------
#            CONDITIONS AUX LIMITES ET CHARGEMENT SURFACIQUE
#---------------------------------------------------------------------- 
#
#


CH1=AFFE_CHAR_MECA(MODELE=MODEL,
                   DDL_IMPO=(_F(GROUP_NO='LIM11',
                                DX=0.0,
                                DY=0.0,),
                             _F(GROUP_NO='LIM12',
                                DX=0.0,
                                DY=0.0,),
                             _F(GROUP_NO='LIM2',
                                DX=0.0,),
                             _F(GROUP_NO='LIM3',
                                DX=0.0,),
                             _F(GROUP_NO='LBC1',
                                DX=0.0,
                                DY=0.0,),),
                   LIAISON_DDL=_F(GROUP_NO=('A1','A2'),
                                  DDL=('DY','DY'),
                                  COEF_MULT=(1.0,-1.0),
                                  COEF_IMPO=0.0,),
                   PRES_REP=_F(GROUP_MA='LHE',
                               PRES=12.33,),);
#           
#-----------------------------------------------------------------------
#                      CARACTERISTIQUES DU CONTACT
#-----------------------------------------------------------------------
#
#
CH2 =DEFI_CONTACT(MODELE       = MODEL,
                  FORMULATION  = 'DISCRETE',

                  ZONE=(
                        _F(
                          APPARIEMENT='MAIT_ESCL',
                          GROUP_MA_MAIT='LFC2',
                          GROUP_MA_ESCL='LC1D',
                          TOLE_APPA = 60.,
                          SANS_GROUP_NO=('C1','C2'),
                         ),
                        _F(
                          APPARIEMENT='MAIT_ESCL',
                          GROUP_MA_MAIT='LEA2',
                          GROUP_MA_ESCL='LA1B',
                          TOLE_APPA = 60.,
                          SANS_GROUP_NO=('A1','A2'),
                         ),                                                   
                       ),  
                  )

#           
#-----------------------------------------------------------------------
#                      RESOLUTION
#-----------------------------------------------------------------------
#
#


RAMPE=DEFI_FONCTION(NOM_PARA='INST',
                    VALE=(0.0,0.0,1.0,1.0),
                    PROL_DROITE='LINEAIRE',
                    PROL_GAUCHE='LINEAIRE',);

L_INST=DEFI_LIST_REEL(DEBUT=0.0,
                      INTERVALLE=(_F(JUSQU_A=0.5,
                                     NOMBRE=50,),
                                  _F(JUSQU_A=1.0,
                                     NOMBRE=50,),),);

DEFOR=STAT_NON_LINE(MODELE=MODEL,
                    CHAM_MATER=CM,
                    EXCIT=(_F(CHARGE=CH1,
                              FONC_MULT=RAMPE,),
                           ),
                    CONTACT  = CH2,       
                    COMP_INCR=(_F(RELATION='VMIS_ISOT_TRAC',
                                  DEFORMATION='SIMO_MIEHE',
                                  GROUP_MA='FLAN',),
                               _F(RELATION='VMIS_ISOT_LINE',
                                  DEFORMATION='SIMO_MIEHE',
                                  GROUP_MA='SOLIDE',),),
                    INCREMENT=_F(LIST_INST=L_INST,INST_FIN=0.75,),
                    NEWTON=_F(MATRICE='TANGENTE',
                              REAC_ITER=1,),
                    SOLVEUR=_F(SYME='OUI'),          
                    CONVERGENCE=_F(RESI_GLOB_RELA=9.9999999999999995E-07,
                                   ITER_GLOB_MAXI=200),
                    INFO=1,);


TEST_RESU(RESU=(_F(RESULTAT=DEFOR,
                   NUME_ORDRE=10,
                   NOM_CHAM='DEPL',
                   NOM_CMP='DY',
                   GROUP_NO='A2',
                   VALE=10.6,
                   PRECISION=0.10,
                   REFERENCE='SOURCE_EXTERNE',),
                _F(RESULTAT=DEFOR,
                   NUME_ORDRE=20,
                   NOM_CHAM='DEPL',
                   NOM_CMP='DY',
                   GROUP_NO='A2',
                   VALE=15.4,
                   PRECISION=0.10,
                   REFERENCE='SOURCE_EXTERNE',),
                _F(RESULTAT=DEFOR,
                   NUME_ORDRE=30,
                   NOM_CHAM='DEPL',
                   NOM_CMP='DY',
                   GROUP_NO='A2',
                   VALE=20.00,
                   PRECISION=0.10,
                   REFERENCE='SOURCE_EXTERNE',),
                _F(RESULTAT=DEFOR,
                   NUME_ORDRE=40,
                   NOM_CHAM='DEPL',
                   NOM_CMP='DY',
                   GROUP_NO='A2',
                   VALE=24.7,
                   PRECISION=0.10,
                   REFERENCE='SOURCE_EXTERNE',),
                _F(RESULTAT=DEFOR,
                   NUME_ORDRE=50,
                   NOM_CHAM='DEPL',
                   NOM_CMP='DY',
                   GROUP_NO='A2',
                   VALE=28.2,
                   PRECISION=0.10,
                   REFERENCE='SOURCE_EXTERNE',),
                _F(RESULTAT=DEFOR,
                   NUME_ORDRE=60,
                   NOM_CHAM='DEPL',
                   NOM_CMP='DY',
                   GROUP_NO='A2',
                   VALE=33.0,
                   PRECISION=0.10,
                   REFERENCE='SOURCE_EXTERNE',),
                _F(RESULTAT=DEFOR,
                   NUME_ORDRE=70,
                   NOM_CHAM='DEPL',
                   NOM_CMP='DY',
                   GROUP_NO='A2',
                   VALE=37.4,
                   PRECISION=0.10,
                   REFERENCE='SOURCE_EXTERNE',),
                _F(RESULTAT=DEFOR,
                   NUME_ORDRE=75,
                   NOM_CHAM='DEPL',
                   NOM_CMP='DY',
                   GROUP_NO='A2',
                   VALE=44.00,
                   PRECISION=0.10,
                   REFERENCE='SOURCE_EXTERNE',),),);

# TESTS DE NON REGRESSION

TEST_RESU(RESU=(_F(RESULTAT=DEFOR,
                   NUME_ORDRE=10,
                   NOM_CHAM='DEPL',
                   NOM_CMP='DY',
                   GROUP_NO='A2',
                   VALE=9.976750775296,
                   REFERENCE='SOURCE_EXTERNE',
                   VERSION='10.3.0',
                   ),
                _F(RESULTAT=DEFOR,
                   NUME_ORDRE=20,
                   NOM_CHAM='DEPL',
                   NOM_CMP='DY',
                   GROUP_NO='A2',
                   VALE=15.090528432791,
                   REFERENCE='SOURCE_EXTERNE',
                   VERSION='10.3.0',
                   ),
                _F(RESULTAT=DEFOR,
                   NUME_ORDRE=30,
                   NOM_CHAM='DEPL',
                   NOM_CMP='DY',
                   GROUP_NO='A2',
                   VALE=19.344018539891,
                   REFERENCE='SOURCE_EXTERNE',
                   VERSION='10.3.0',
                   ),
                _F(RESULTAT=DEFOR,
                   NUME_ORDRE=40,
                   NOM_CHAM='DEPL',
                   NOM_CMP='DY',
                   GROUP_NO='A2',
                   VALE=23.595071481369,
                   REFERENCE='SOURCE_EXTERNE',
                   VERSION='10.3.0',
                   ),
                _F(RESULTAT=DEFOR,
                   NUME_ORDRE=50,
                   NOM_CHAM='DEPL',
                   NOM_CMP='DY',
                   GROUP_NO='A2',
                   VALE=27.621841772658,
                   REFERENCE='SOURCE_EXTERNE',
                   VERSION='10.3.0',
                   ),
                _F(RESULTAT=DEFOR,
                   NUME_ORDRE=60,
                   NOM_CHAM='DEPL',
                   NOM_CMP='DY',
                   GROUP_NO='A2',
                   VALE=31.999777381797,
                   REFERENCE='SOURCE_EXTERNE',
                   VERSION='10.3.0',
                   ),
                _F(RESULTAT=DEFOR,
                   NUME_ORDRE=70,
                   NOM_CHAM='DEPL',
                   NOM_CMP='DY',
                   GROUP_NO='A2',
                   VALE=37.053707223633,
                   REFERENCE='SOURCE_EXTERNE',
                   VERSION='10.3.0',
                   ),
                _F(RESULTAT=DEFOR,
                   NUME_ORDRE=75,
                   NOM_CHAM='DEPL',
                   NOM_CMP='DY',
                   GROUP_NO='A2',
                   VALE=40.591280063619,
                   REFERENCE='SOURCE_EXTERNE',
                   VERSION='10.3.0',
                   ),),);

FIN();
#
