
# MODIF  DATE 22/09/2009   AUTEUR PROIX J-M.PROIX 
# TITRE COMPORTEMENTS ELASTOVISCOPLASTIQUES MONOCRISTALLINS
# RESPONSABLE JMBHH01 J.M.PROIX
# ssnv172a.para = tps_job 210 mem_job 64Mo ncpus 1 liste_test R
#            CONFIGURATION MANAGEMENT OF EDF VERSION
# ======================================================================
# COPYRIGHT (C) 1991 - 2004  EDF R&D                  WWW.CODE-ASTER.ORG
# THIS PROGRAM IS FREE SOFTWARE; YOU CAN REDISTRIBUTE IT AND/OR MODIFY  
# IT UNDER THE TERMS OF THE GNU GENERAL PUBLIC LICENSE AS PUBLISHED BY  
# THE FREE SOFTWARE FOUNDATION; EITHER VERSION 2 OF THE LICENSE, OR     
# (AT YOUR OPTION) ANY LATER VERSION.                                                    
#                                                                       
# THIS PROGRAM IS DISTRIBUTED IN THE HOPE THAT IT WILL BE USEFUL, BUT   
# WITHOUT ANY WARRANTY; WITHOUT EVEN THE IMPLIED WARRANTY OF            
# MERCHANTABILITY OR FITNESS FOR A PARTICULAR PURPOSE. SEE THE GNU      
# GENERAL PUBLIC LICENSE FOR MORE DETAILS.                              
#                                                                       
# YOU SHOULD HAVE RECEIVED A COPY OF THE GNU GENERAL PUBLIC LICENSE     
# ALONG WITH THIS PROGRAM; IF NOT, WRITE TO EDF R&D CODE_ASTER,         
#    1 AVENUE DU GENERAL DE GAULLE, 92141 CLAMART CEDEX, FRANCE.        
# ======================================================================

DEBUT(CODE=_F(NOM='SSNV172A',
              NIV_PUB_WEB='INTERNET',),);

CUBE=LIRE_MAILLAGE();


TROISD=AFFE_MODELE(MAILLAGE=CUBE,
                   AFFE=_F(TOUT='OUI',
                           PHENOMENE='MECANIQUE',
                           MODELISATION='3D',),);
TFIN = 0.955;
TFIN2 = 10.;
TFIN3=2.

NPAS = 20;

NPASC = 100;


LINSTC=DEFI_LIST_REEL(DEBUT=0.0,
                      INTERVALLE=(_F(JUSQU_A=0.755,
                                     NOMBRE=1,),
                                  _F(JUSQU_A=TFIN,
                                     NOMBRE=NPASC,),),);

LINST=DEFI_LIST_REEL(DEBUT=0.0,
                     INTERVALLE=(_F(JUSQU_A=0.755,
                                    NOMBRE=1,),
                                 _F(JUSQU_A=TFIN,
                                    NOMBRE=NPAS,),),);

LINST2=DEFI_LIST_REEL(DEBUT=0.0,
                     INTERVALLE=(_F(JUSQU_A=2.,
                                    NOMBRE=1,),
                                 _F(JUSQU_A=TFIN2,
                                    NOMBRE=100,),
                                    ),);
LINST2C=DEFI_LIST_REEL(DEBUT=0.0,
                     INTERVALLE=(_F(JUSQU_A=2.,
                                    NOMBRE=1,),
                                 _F(JUSQU_A=TFIN2,
                                    NOMBRE=500,),
                                    ),);
LINST3=DEFI_LIST_REEL(DEBUT=0.0,
                     INTERVALLE=(_F(JUSQU_A=0.52,
                                    NOMBRE=1,),
                                 _F(JUSQU_A=TFIN3,
                                    NOMBRE=NPAS,),),);

LINST3C=DEFI_LIST_REEL(DEBUT=0.0,
                     INTERVALLE=(_F(JUSQU_A=0.52,
                                    NOMBRE=1,),
                                 _F(JUSQU_A=TFIN3,
                                    NOMBRE=NPASC,),),);

COEF=DEFI_FONCTION(NOM_PARA='INST',
                   VALE=(0.0,0.0,1.0,1.0,),
                   PROL_DROITE='LINEAIRE',
                   PROL_GAUCHE='LINEAIRE',);


TRAC=AFFE_CHAR_MECA(MODELE=TROISD,
                    DDL_IMPO=(_F(NOEUD='NO4',
                                 DX=0.0,
                                 DY=0.0,),
                              _F(NOEUD='NO8',
                                 DX=0.0,
                                 DY=0.0,
                                 DZ=0.0,),
                              _F(NOEUD='NO2',
                                 DX=0.0,),
                              _F(NOEUD='NO6',
                                 DX=0.0,),),
                    FORCE_NODALE=(_F(NOEUD=('NO3','NO7',),
                                     FX=25.0,),
                                  _F(NOEUD=('NO1','NO5',),
                                     FX=25.0,),),);

TRAC2=AFFE_CHAR_MECA(MODELE=TROISD,
                    DDL_IMPO=(_F(NOEUD='NO4',
                                 DX=0.0,
                                 DY=0.0,),
                              _F(NOEUD='NO8',
                                 DX=0.0,
                                 DY=0.0,
                                 DZ=0.0,),
                              _F(NOEUD='NO2',
                                 DX=0.0,),
                              _F(NOEUD='NO6',
                                 DX=0.0,),),
                    FORCE_NODALE=(_F(NOEUD=('NO3','NO7',),
                                     FX=35.0,),
                                  _F(NOEUD=('NO1','NO5',),
                                     FX=35.0,),),);
TRAC3=AFFE_CHAR_MECA(MODELE=TROISD,
                    DDL_IMPO=(_F(NOEUD='NO4',
                                 DX=0.0,
                                 DY=0.0,),
                              _F(NOEUD='NO8',
                                 DX=0.0,
                                 DY=0.0,
                                 DZ=0.0,),
                              _F(NOEUD='NO2',
                                 DX=0.0,),
                              _F(NOEUD='NO6',
                                 DX=0.0,),
                              _F(NOEUD=('NO3','NO7',),
                                 DX=0.001,),
                              _F(NOEUD=('NO1','NO5',),
                                 DX=0.001,),
                                 ),);

# en Joules / Kelvin

KJ=1.38E-23

# en eV / Kelvin

KeV=KJ/1.6E-19

#print 'K en eV=',KeV

# MATERIAU DE TYPE CHABOCHE, SOIT MACRO, SOIT MONOCRISTAL
ACIER=DEFI_MATERIAU(ELAS=_F(E=145200.0,
                            NU=0.0,
                            ALPHA=0.),
                    CIN1_CHAB=_F(R_0=75.5,
                                 R_I=85.27,
                                 B=19.34,
                                 C_I=10.0,
                                 K=1.0,
                                 W=0.0,
                                 G_0=36.68,
                                 A_I=1.0,),
                    LEMAITRE=_F(N=10.0,
                                UN_SUR_K=0.025,
                                UN_SUR_M=0.0,),
                    ECOU_VISC1=_F(N=10.0,
                                  K=40.0,
                                  C=10.0,),
                    ECOU_VISC2=_F(N=10.0,
                                  K=40.0,
                                  C=10.0,
                                  D=0.0,
                                  A=0.0,),
                    ECOU_VISC3=_F(K=KeV,
                                  TAUMU=75.5,
                                  GAMMA0=1e-10,
                                  DELTAV=1e-06,
                                  DELTAG0=0,),
                    ECRO_ISOT1=_F(R_0=75.5,
                                  Q=9.77,
                                  B=19.34,
                                  H=0.0,),
                    ECRO_ISOT2=_F(R_0=75.5,
                                  Q1=9.77,
                                  B1=19.34,
                                  H=0.0,
                                  Q2=0.0,
                                  B2=0.0,),
                    ECRO_CINE1=_F(D=36.68,),
                    ECRO_CINE2=_F(D=36.68,
                                  GM=0.0,
                                  PM=0.0,
                                  C=0.0,),);

ACIERT=DEFI_MATERIAU(ELAS=_F(E=145200.0,
                            NU=0.0,
                            ALPHA=0.),
                    ECOU_VISC1=_F(N=10.0,
                                  K=40.0,
                                  C=10.0,),
                    ECOU_VISC2=_F(N=10.0,
                                  K=40.0,
                                  C=10.0,
                                  D=0.0,
                                  A=0.0,),
                    ECOU_VISC3=_F(K=KeV,
                                  TAUMU=75.5,
                                  GAMMA0=1e-10,
                                  DELTAV=1e-06,
                                  DELTAG0=0,),
                    ECRO_ISOT1=_F(R_0=75.5,
                                  Q=9.77,
                                  B=19.34,
                                  H=0.0,),
                    ECRO_ISOT2=_F(R_0=75.5,
                                  Q1=9.77,
                                  B1=19.34,
                                  H=0.0,
                                  Q2=0.0,
                                  B2=0.0,),
                    ECRO_CINE1=_F(D=36.68,),
                    ECRO_CINE2=_F(D=36.68,
                                  GM=10.0,
                                  PM=0.10,
                                  C=10.0,),);
                                  
# MATERIAU DEFINI POUR LE COMPORTEMENT  KOCKS_RAUCH

ACIER2=DEFI_MATERIAU(ELAS=_F(E=275200.,
                            NU=0.3,
                            ALPHA=0.),
                   KOCKS_RAUCH=_F(K      = 8.62E-5,
                                  TAUR   = 498.,
                                  TAU0   = 132.,
                                  GAMMA0 = 1.E6,
                                  DELTAG0= 0.768,
                                  BSD    = 2.514E-5,
                                  GCB    = 31.822,
                                  KDCS   = 22.9,
                                  P      = 0.335,
                                  Q      = 1.12,
                                   H1      = 0.25,
                                   H2      = 0.25,
                                   H3      = 0.25,
                                   H4      = 0.25,
                                  ),        
                    ECOU_VISC1=_F(N=10.0,
                                  K=40.0,
                                  C=1.0,),
                    ECRO_ISOT1=_F(R_0=75.5,
                                  Q=9.77,
                                  B=19.34,
                                  H=0.0,),
                    ECRO_CINE1=_F(D=36.68,),);


COEFN=8.
COEFK=40.
GAMMAP0=1.0/(COEFK)**COEFN

#print 'GAMMA_POINT_0 = ', GAMMAP0

TEMP=273.5
DELTAV=KeV*TEMP
#print 'DELTAV = ', DELTAV


ACIER3=DEFI_MATERIAU(ELAS=_F(E=145200.0,
                            NU=0.0,
                            ALPHA=0.),
                    ECOU_VISC1=_F(N=COEFN,
                                  K=COEFK,
                                  C=0.0,),
                    ECOU_VISC3=_F(K=KeV,
                                  TAUMU=75.5,
                                  GAMMA0=GAMMAP0,
                                  DELTAV=DELTAV,
                                  DELTAG0=0,),
                    ECRO_ISOT1=_F(R_0=75.5,
                                  Q=0,
                                  B=0,
                                  H=0.0,),
                    ECRO_CINE1=_F(D=0,),
                                  );


TEMPE=CREA_CHAMP(OPERATION='AFFE', TYPE_CHAM='NOEU_TEMP_R',
               MAILLAGE=CUBE,
                   AFFE=_F( 
               TOUT = 'OUI',
               NOM_CMP = 'TEMP',
               VALE= 0.)
             )


MAT=AFFE_MATERIAU(MAILLAGE=CUBE,
                        AFFE_VARC=(_F(TOUT='OUI',
                                     CHAMP_GD=TEMPE,
                                     NOM_VARC='TEMP',
                                     VALE_REF=0),),
                  AFFE=_F(TOUT='OUI',
                          MATER=ACIER,),);
                          
MATT=AFFE_MATERIAU(MAILLAGE=CUBE,
                        AFFE_VARC=(_F(TOUT='OUI',
                                     CHAMP_GD=TEMPE,
                                     NOM_VARC='TEMP',
                                     VALE_REF=0),),
                  AFFE=_F(TOUT='OUI',
                          MATER=ACIERT,),);
                          
MAT2=AFFE_MATERIAU(MAILLAGE=CUBE,
                        AFFE_VARC=(_F(TOUT='OUI',
                                     CHAMP_GD=TEMPE,
                                     NOM_VARC='TEMP',
                                     VALE_REF=0),),
                  AFFE=_F(TOUT='OUI',
                          MATER=ACIER2,),);
MAT3=AFFE_MATERIAU(MAILLAGE=CUBE,
                        AFFE_VARC=(_F(TOUT='OUI',
                                     CHAMP_GD=TEMPE,
                                     NOM_VARC='TEMP',
                                     VALE_REF=0),),
                  AFFE=_F(TOUT='OUI',
                          MATER=ACIER3,),);
                          
                          
# TEST INFORMATIQUE DU MATERIAU ORTHOTROPE
# IDENTIQUE EN FAIT AU PRECEDENT

ACIERORT=DEFI_MATERIAU(
                 ELAS_ORTH=_F(  E_L = 145200.0,
                                E_T = 145200.0,
                                E_N = 145200.0,
                                NU_LT = 0.,
                                NU_LN = 0.,
                                NU_TN = 0.,
                                G_LT = 72600.,
                                G_LN = 72600.,
                                G_TN = 72600.,
                                RHO = 7800.,
                                ALPHA_L = 0.,
                                ALPHA_N = 0.,
                                 ALPHA_T = 0.),
                            
                    ECOU_VISC1=_F(N=10.0,
                                  K=40.0,
                                  C=10.0,),

                    ECRO_ISOT1=_F(R_0=75.5,
                                  Q=9.77,
                                  B=19.34,
                                  H=0.0,),

                    ECRO_CINE1=_F(D=36.68,),
                                  );

MATORTH=AFFE_MATERIAU(MAILLAGE=CUBE,
                  AFFE=_F(TOUT='OUI',
                          MATER=ACIERORT,),);
                          
COMPOR1=DEFI_COMPOR(MONOCRISTAL=(_F(MATER=ACIER,
                                    ECOULEMENT='ECOU_VISC1',
                                    ECRO_ISOT='ECRO_ISOT1',
                                    ECRO_CINE='ECRO_CINE1',
                                    ELAS='ELAS',
                                    FAMI_SYST_GLIS='UNIAXIAL',),),);

COMPOR2=DEFI_COMPOR(MONOCRISTAL=(_F(MATER=ACIER,
                                    ECOULEMENT='ECOU_VISC2',
                                    ECRO_ISOT='ECRO_ISOT2',
                                    ECRO_CINE='ECRO_CINE2',
                                    ELAS='ELAS',
                                    FAMI_SYST_GLIS='UNIAXIAL',),),);
                          
COMPOR3A=DEFI_COMPOR(MONOCRISTAL=(_F(MATER=ACIER3,
                                    ECOULEMENT='ECOU_VISC1',
                                    ECRO_ISOT='ECRO_ISOT1',
                                    ECRO_CINE='ECRO_CINE1',
                                    ELAS='ELAS',
                                    FAMI_SYST_GLIS='UNIAXIAL',),),);
                          
COMPOR3B=DEFI_COMPOR(MONOCRISTAL=(_F(MATER=ACIER3,
                                    ECOULEMENT='ECOU_VISC3',
                                    ECRO_ISOT='ECRO_ISOT1',
                                    ECRO_CINE='ECRO_CINE1',
                                    ELAS='ELAS',
                                    FAMI_SYST_GLIS='UNIAXIAL',),),);
                          

# ORTHOTROPIE
COMPORTH=DEFI_COMPOR(MONOCRISTAL=(_F(MATER=ACIERORT,
                                    ECOULEMENT='ECOU_VISC1',
                                    ECRO_ISOT='ECRO_ISOT1',
                                    ECRO_CINE='ECRO_CINE1',
                                    ELAS='ELAS_ORTH',
                                    FAMI_SYST_GLIS='UNIAXIAL',),),);

                    
# ORIENTATION QUELCONQUE (PAS DE VALEUR DE REFERENCE)
ORIEN=AFFE_CARA_ELEM(MODELE=TROISD,
                     MASSIF=_F(GROUP_MA='TOUT',
                               ANGL_REP=(30.0,0.0,0.0,),),);

COMPORT=DEFI_COMPOR(MONOCRISTAL=(_F(MATER=ACIERT,
                                    ECOULEMENT='ECOU_VISC1',
                                    ECRO_ISOT='ECRO_ISOT1',
                                    ECRO_CINE='ECRO_CINE1',
                                    ELAS='ELAS',
                                    FAMI_SYST_GLIS='BASAL',),
                                 _F(MATER=ACIERT,
                                    ECOULEMENT='ECOU_VISC2',
                                    ECRO_ISOT='ECRO_ISOT2',
                                    ECRO_CINE='ECRO_CINE2',
                                    FAMI_SYST_GLIS='PRISMATIQUE',),
                                 _F(MATER=ACIERT,
                                    ECOULEMENT='ECOU_VISC3',
                                    ECRO_ISOT='ECRO_ISOT1',
                                    ECRO_CINE='ECRO_CINE2',
                                    FAMI_SYST_GLIS='CUBIQUE1',),
                                 _F(MATER=ACIERT,
                                    ECOULEMENT='ECOU_VISC3',
                                    ECRO_ISOT='ECRO_ISOT2',
                                    ECRO_CINE='ECRO_CINE1',
                                    FAMI_SYST_GLIS='MACLAGE',),),);
                          

# KOCKS_RAUCH
COMPORKR=DEFI_COMPOR(MONOCRISTAL=(_F(MATER=ACIER2,
                                    ECOULEMENT='KOCKS_RAUCH',
                                    ECRO_ISOT='ECRO_ISOT1',
                                    ECRO_CINE='ECRO_CINE1',
                                    ELAS='ELAS',
                                    FAMI_SYST_GLIS='BCC24',),),);

COMPORP=DEFI_COMPOR(POLYCRISTAL=(
                        _F(MONOCRISTAL=COMPORKR,FRAC_VOL=1,ANGL_EULER=(0.,0.,0.),),   
                        ),  
                    LOCALISATION='BETA',DL=0.,DA=0.,
                    );
                    
ORIENKR=AFFE_CARA_ELEM(MODELE=TROISD,
                     MASSIF=_F(GROUP_MA='TOUT',
                               ANGL_EULER=(163.03, 47.67, 335.63),),);



# LOI DE COMPORTEMENT KOCKS_RAUCH

IMPLKR=STAT_NON_LINE(MODELE=TROISD,
                     CHAM_MATER=MAT2,
                     CARA_ELEM=ORIENKR,
                     EXCIT=(_F(CHARGE=TRAC3,
                               FONC_MULT=COEF,
                               TYPE_CHARGE='FIXE_CSTE',),),
                     COMP_INCR=(_F(RELATION='MONOCRISTAL',
                                   COMPOR=COMPORKR,
                                   ITER_INTE_MAXI=100,
                                  # ITER_INTE_PAS=10,
                                   RESO_INTE='IMPLICITE',
                                   TOUT='OUI',),),
                     INCREMENT=(_F(LIST_INST=LINST3,),),
                     NEWTON=(_F(PREDICTION='EXTRAPOL',
                                REAC_ITER=1,),),
                     ARCHIVAGE=_F(LIST_INST=LINST3,),
                     CONVERGENCE=(_F(RESI_GLOB_RELA=1e-06,
                                     ITER_GLOB_MAXI=10,),),);

IMPLKR=CALC_ELEM(reuse =IMPLKR,
                 RESULTAT=IMPLKR,
                 OPTION=('EPSI_ELGA_DEPL','EPSP_ELGA'),);

TEST_RESU(RESU=(_F(RESULTAT=IMPLKR,
                   INST=TFIN3,
                   NOM_CHAM='SIEF_ELGA',
                   NOM_CMP='SIXX',
                   MAILLE='MA1',
                   POINT=1,
                   VALE=-3.2437264702129E+02,PRECISION=(0.004,0.0001),
                   REFERENCE='SOURCE_EXTERNE',),
                _F(RESULTAT=IMPLKR,
                   INST=TFIN3,
                   NOM_CHAM='EPSI_ELGA_DEPL',
                   NOM_CMP='EPXX',
                   MAILLE='MA1',
                   POINT=1,
                   VALE=-0.002,
                   REFERENCE='ANALYTIQUE',),
                _F(RESULTAT=IMPLKR,
                   INST=TFIN3,
                   NOM_CHAM='EPSP_ELGA',
                   NOM_CMP='EPXX',
                   MAILLE='MA1',
                   POINT=1,
                   VALE=-8.1822270710961E-04,PRECISION=(0.04,0.0001),
                   REFERENCE='SOURCE_EXTERNE',),
                   ),)
                   


# LOI DE COMPORTEMENT KOCKS_RAUCH en Explicite

EXPLKR=STAT_NON_LINE(MODELE=TROISD,
                     CHAM_MATER=MAT2,
                     CARA_ELEM=ORIENKR,
                     EXCIT=(_F(CHARGE=TRAC3,
                               FONC_MULT=COEF,
                               TYPE_CHARGE='FIXE_CSTE',),),
                     COMP_INCR=(_F(RELATION='MONOCRISTAL',
                                   COMPOR=COMPORKR,
                                   RESO_INTE='RUNGE_KUTTA_2',
                                   TOUT='OUI',),),
                     INCREMENT=(_F(LIST_INST=LINST3C,),),
                     NEWTON=(_F(PREDICTION='EXTRAPOL',
                               MATRICE='ELASTIQUE'),),
                     CONVERGENCE=(_F(#RESI_GLOB_RELA=1e-08,
                                     ITER_GLOB_MAXI=10,),),
                     ARCHIVAGE=_F(LIST_INST=LINST3,),
                                     )

EXPLKR=CALC_ELEM(reuse =EXPLKR,
                 RESULTAT=EXPLKR,
                 OPTION=('EPSI_ELGA_DEPL','EPSP_ELGA'),);


TEST_RESU(RESU=(_F(RESULTAT=EXPLKR,
                   INST=TFIN3,
                   NOM_CHAM='SIEF_ELGA',
                   NOM_CMP='SIXX',
                   MAILLE='MA1',
                   POINT=1,
                   VALE=-3.2437264702129E+02,PRECISION=(0.04,0.0001),
                   REFERENCE='SOURCE_EXTERNE',),
                _F(RESULTAT=EXPLKR,
                   INST=TFIN3,
                   NOM_CHAM='EPSI_ELGA_DEPL',
                   NOM_CMP='EPXX',
                   MAILLE='MA1',
                   POINT=1,
                   VALE=-0.002,
                   REFERENCE='ANALYTIQUE',),
                _F(RESULTAT=EXPLKR,
                   INST=TFIN3,
                   NOM_CHAM='EPSP_ELGA',
                   NOM_CMP='EPXX',
                   MAILLE='MA1',
                   POINT=1,
                   VALE=-8.1822270710961E-04,PRECISION=0.02,
                   REFERENCE='SOURCE_EXTERNE',),
                   ),)
                   

# LOI DE COMPORTEMENT KOCKS_RAUCH en Explicite POLYCRISTAL

EXPLKRP=STAT_NON_LINE(MODELE=TROISD,
                     CHAM_MATER=MAT2,
                     CARA_ELEM=ORIENKR,
                     EXCIT=(_F(CHARGE=TRAC3,
                               FONC_MULT=COEF,
                               TYPE_CHARGE='FIXE_CSTE',),),
                     COMP_INCR=(_F(RELATION='POLYCRISTAL',
                                   COMPOR=COMPORP,
                                   RESO_INTE='RUNGE_KUTTA_2',
                                   TOUT='OUI',),),
                     INCREMENT=(_F(LIST_INST=LINST3C,),),
                     NEWTON=(_F(PREDICTION='EXTRAPOL',
                               MATRICE='ELASTIQUE'),),
                     CONVERGENCE=(_F(#RESI_GLOB_RELA=1e-08,
                                     ITER_GLOB_MAXI=10,),),
                     ARCHIVAGE=_F(LIST_INST=LINST3,),
                                     )
#IMPR_RESU(RESU=_F(RESULTAT=EXPLKRP))

EXPLKRP=CALC_ELEM(reuse =EXPLKRP,
                 RESULTAT=EXPLKRP,
                 OPTION=('EPSI_ELGA_DEPL','EPSP_ELGA'),);


TEST_RESU(RESU=(_F(RESULTAT=EXPLKRP,
                   INST=TFIN3,
                   NOM_CHAM='SIEF_ELGA',
                   NOM_CMP='SIXX',
                   MAILLE='MA1',
                   POINT=1,
                   VALE=-3.2437264702129E+02,PRECISION=(0.04,0.0001),
                   REFERENCE='SOURCE_EXTERNE',),
                _F(RESULTAT=EXPLKRP,
                   INST=TFIN3,
                   NOM_CHAM='EPSI_ELGA_DEPL',
                   NOM_CMP='EPXX',
                   MAILLE='MA1',
                   POINT=1,
                   VALE=-0.002,
                   REFERENCE='ANALYTIQUE',),
                _F(RESULTAT=EXPLKRP,
                   INST=TFIN3,
                   NOM_CHAM='EPSP_ELGA',
                   NOM_CMP='EPXX',
                   MAILLE='MA1',
                   POINT=1,
                   VALE=-8.1822270710961E-04,PRECISION=0.02,
                   REFERENCE='SOURCE_EXTERNE',),
                   ),)
                   

                   
                   
                          
# IMPLICITE : TEST DE ECOU_VISC2, ECRO_LINE2, ECRO_CIN2

IMPL2=STAT_NON_LINE(MODELE=TROISD,INFO=1,
                     CHAM_MATER=MAT,
                     EXCIT=(_F(CHARGE=TRAC,
                               FONC_MULT=COEF,
                               TYPE_CHARGE='FIXE_CSTE',),),
                     COMP_INCR=(_F(RELATION='MONOCRISTAL',
                                   COMPOR=COMPOR2,
                                   DEFORMATION='PETIT',
                                   ITER_INTE_MAXI=100,
                                   RESI_INTE_RELA=1.E-9,
                                   ITER_INTE_PAS=10,
                                   TOUT='OUI',),),
                     INCREMENT=(_F(LIST_INST=LINST,),),
                     NEWTON=(_F(REAC_ITER=1,PREDICTION='EXTRAPOL'),),
                     ARCHIVAGE=_F(LIST_INST=LINST,),
                                     );

IMPL2=CALC_ELEM(reuse =IMPL2,
                 RESULTAT=IMPL2,
                 OPTION=('EPSI_ELGA_DEPL','EPSP_ELGA',),);

                   
# COMPARASION A VISC_CIN1_CHAB, MAIS PROBLEME DE SENSIBILITE AU PAS DE 
# TEMPS. CELA CONVERGE QUAND DELTAT TEND VERS 0

TEST_RESU(RESU=(_F(RESULTAT=IMPL2,
                   INST=TFIN,
                   NOM_CHAM='SIEF_ELGA',
                   NOM_CMP='SIXX',
                   MAILLE='MA1',
                   POINT=1,
                   VALE=-95.5,
                   REFERENCE='ANALYTIQUE',),
                _F(RESULTAT=IMPL2,
                   INST=TFIN,
                   NOM_CHAM='EPSI_ELGA_DEPL',
                   NOM_CMP='EPXX',
                   MAILLE='MA1',
                   POINT=1,
                   VALE=-0.000675943476554,
                   REFERENCE='AUTRE_ASTER',),
                _F(RESULTAT=IMPL2,
                   INST=TFIN,
                   NOM_CHAM='EPSP_ELGA',
                   NOM_CMP='EPXX',
                   MAILLE='MA1',
                   POINT=1,
                   VALE=-1.82299780001e-05,
                   PRECISION=(0.02,0.0001,),
                   REFERENCE='AUTRE_ASTER',),),);
                   

# IMPR_RESU(RESU=_F(RESULTAT=IMPL2))
# 
# FIN()
                   

# SOLUTION DE REFERENCE                          
# ATTENTION TRES SENSIBLE AU PAS DE TEMPS.

SOLCHAB=STAT_NON_LINE(MODELE=TROISD,
                      CHAM_MATER=MAT,
                      EXCIT=(_F(CHARGE=TRAC,
                                FONC_MULT=COEF,
                                TYPE_CHARGE='FIXE_CSTE',),),
                      COMP_INCR=(_F(RELATION='VISC_CIN1_CHAB',
                                    DEFORMATION='PETIT',
                                    ITER_INTE_MAXI=100,
                                    TOUT='OUI',),),
                      INCREMENT=(_F(LIST_INST=LINSTC,),),
                      NEWTON=(_F(REAC_ITER=1,),),
                      ARCHIVAGE=_F(LIST_INST=LINST,),);

SOLCHAB=CALC_ELEM(reuse =SOLCHAB,
                  RESULTAT=SOLCHAB,
                  OPTION=('EPSI_ELGA_DEPL','EPSP_ELGA',),);

TEST_RESU(RESU=(_F(RESULTAT=SOLCHAB,
                   INST=TFIN,
                   NOM_CHAM='SIEF_ELGA',
                   NOM_CMP='SIXX',
                   MAILLE='MA1',
                   POINT=1,
                   VALE=-95.5,
                   REFERENCE='ANALYTIQUE',),
                _F(RESULTAT=SOLCHAB,
                   INST=TFIN,
                   NOM_CHAM='EPSI_ELGA_DEPL',
                   NOM_CMP='EPXX',
                   MAILLE='MA1',
                   POINT=1,
                   VALE=-0.0006764427,
                   REFERENCE='NON_REGRESSION',),
                _F(RESULTAT=SOLCHAB,
                   INST=TFIN,
                   NOM_CHAM='EPSP_ELGA',
                   NOM_CMP='EPXX',
                   MAILLE='MA1',
                   POINT=1,
                   VALE=-1.8729214778e-05,
                   REFERENCE='NON_REGRESSION',),),);
                   
                   

# EXPLICITE RUNGE_KUTTA : TEST DE ECOU_VISC1, ECRO_LINE1, ECRO_CIN1


EXPL1=STAT_NON_LINE(MODELE=TROISD,
                    CHAM_MATER=MAT,
                    EXCIT=(_F(CHARGE=TRAC,
                              FONC_MULT=COEF,
                              TYPE_CHARGE='FIXE_CSTE',),),
                    COMP_INCR=(_F(RELATION='MONOCRISTAL',
                                  COMPOR=COMPOR1,
                                  DEFORMATION='PETIT',
                                  ITER_INTE_PAS=4,
                                  RESO_INTE='RUNGE_KUTTA_2',
                                  TOUT='OUI',),),
                     NEWTON=(_F(PREDICTION='EXTRAPOL',
                                MATRICE='ELASTIQUE',
                                REAC_ITER=0,),),
                    INCREMENT=(_F(LIST_INST=LINST,),),
                    );

EXPL1=CALC_ELEM(reuse =EXPL1,
                RESULTAT=EXPL1,
                OPTION=('EPSI_ELGA_DEPL','EPSP_ELGA',),);

                   
# COMPARASION A VISC_CIN1_CHAB, MAIS PROBLEME DE SENSIBILITE AU PAS DE 
# TEMPS. CELA CONVERGE QUAND DELTAT TEND VERS 0

TEST_RESU(RESU=(_F(RESULTAT=EXPL1,
                   INST=TFIN,
                   NOM_CHAM='SIEF_ELGA',
                   NOM_CMP='SIXX',
                   MAILLE='MA1',
                   POINT=1,
                   VALE=-95.5,
                   REFERENCE='ANALYTIQUE',),
                _F(RESULTAT=EXPL1,
                   INST=TFIN,
                   NOM_CHAM='EPSI_ELGA_DEPL',
                   NOM_CMP='EPXX',
                   MAILLE='MA1',
                   POINT=1,
                   VALE=-0.00067594,
                   REFERENCE='AUTRE_ASTER',),
                _F(RESULTAT=EXPL1,
                   INST=TFIN,
                   NOM_CHAM='EPSP_ELGA',
                   NOM_CMP='EPXX',
                   MAILLE='MA1',
                   POINT=1,
                   VALE=-1.82299780001e-05,
                   PRECISION=(0.02,0.0001,),
                   REFERENCE='AUTRE_ASTER',),),);


# EXPLICITE RUNGE_KUTTA : TEST DE ECOU_VISC2, ECRO_LINE2, ECRO_CIN2

EXPL2=STAT_NON_LINE(MODELE=TROISD,
                     CHAM_MATER=MAT,
                     EXCIT=(_F(CHARGE=TRAC,
                               FONC_MULT=COEF,
                               TYPE_CHARGE='FIXE_CSTE',),),
                     COMP_INCR=(_F(RELATION='MONOCRISTAL',
                                   COMPOR=COMPOR2,
                                   ITER_INTE_MAXI=100,
                                   ITER_INTE_PAS=4,
                                   RESO_INTE='RUNGE_KUTTA_2',
                                   TOUT='OUI',),),
                     INCREMENT=(_F(LIST_INST=LINST,),),
                     NEWTON=(_F(PREDICTION='EXTRAPOL',
                                MATRICE='ELASTIQUE',
                                REAC_ITER=0,),),
                     );

EXPL2=CALC_ELEM(reuse =EXPL2,
                 RESULTAT=EXPL2,
                 OPTION=('EPSI_ELGA_DEPL','EPSP_ELGA',),);

TEST_RESU(RESU=(_F(RESULTAT=EXPL2,
                   INST=TFIN,
                   NOM_CHAM='SIEF_ELGA',
                   NOM_CMP='SIXX',
                   MAILLE='MA1',
                   POINT=1,
                   VALE=-95.5,
                   REFERENCE='ANALYTIQUE',),
                _F(RESULTAT=EXPL2,
                   INST=TFIN,
                   NOM_CHAM='EPSI_ELGA_DEPL',
                   NOM_CMP='EPXX',
                   MAILLE='MA1',
                   POINT=1,
                   VALE=-0.00067575375081,
                   REFERENCE='NON_REGRESSION',),
                _F(RESULTAT=EXPL2,
                   INST=TFIN,
                   NOM_CHAM='EPSP_ELGA',
                   NOM_CMP='EPXX',
                   MAILLE='MA1',
                   POINT=1,
                   VALE=-1.80404222067e-05,
                   REFERENCE='NON_REGRESSION',),
                   ),);


# EXPLICITE RUNGE_KUTTA : TEST DE ECOU_VISC3,



EXPL3B=STAT_NON_LINE(MODELE=TROISD,
                     CHAM_MATER=MAT3,
                     EXCIT=(_F(CHARGE=TRAC3,
                               FONC_MULT=COEF,
                               TYPE_CHARGE='FIXE_CSTE',),),
                     COMP_INCR=(_F(RELATION='MONOCRISTAL',
                                   COMPOR=COMPOR3B,
                                   ITER_INTE_MAXI=100,
                                   ITER_INTE_PAS=4,
                                   RESO_INTE='RUNGE_KUTTA_2',
                                   TOUT='OUI',),),
                     INCREMENT=(_F(LIST_INST=LINST3,),),
                     NEWTON=(_F(PREDICTION='EXTRAPOL',
                                MATRICE='ELASTIQUE',
                                REAC_ITER=0,),),
                     );

EXPL3B=CALC_ELEM(reuse =EXPL3B,
                 RESULTAT=EXPL3B,
                 OPTION=('EPSI_ELGA_DEPL','EPSP_ELGA',),);

TEST_RESU(RESU=(_F(RESULTAT=EXPL3B,
                   INST=TFIN3,
                   NOM_CHAM='SIEF_ELGA',
                   NOM_CMP='SIXX',
                   MAILLE='MA1',
                   POINT=1,
                   VALE=-98.07,
                   REFERENCE='NON_REGRESSION',),
                _F(RESULTAT=EXPL3B,
                   INST=TFIN3,
                   NOM_CHAM='EPSI_ELGA_DEPL',
                   NOM_CMP='EPXX',
                   MAILLE='MA1',
                   POINT=1,
                   VALE=-0.002,
                   REFERENCE='ANALYTIQUE',),
                _F(RESULTAT=EXPL3B,
                   INST=TFIN3,
                   NOM_CHAM='EPSP_ELGA',
                   NOM_CMP='EPXX',
                   MAILLE='MA1',
                   POINT=1,
                   VALE=-1.324556991E-03,
                   REFERENCE='AUTRE_ASTER',),),);

                   
# EXPLICITE RUNGE_KUTTA : TEST DE  ORTHOTROPIE                    
                   
EXPLORTH=STAT_NON_LINE(MODELE=TROISD,
                     CHAM_MATER=MATORTH,
                     EXCIT=(_F(CHARGE=TRAC,
                               FONC_MULT=COEF,
                               TYPE_CHARGE='FIXE_CSTE',),),
                     COMP_INCR=(_F(RELATION='MONOCRISTAL',
                                   COMPOR=COMPORTH,
                                   DEFORMATION='PETIT',
                                   ITER_INTE_PAS=4,
                                   RESO_INTE='RUNGE_KUTTA_2',
                                   TOUT='OUI',),),
                     INCREMENT=(_F(LIST_INST=LINST,),),
                    );

EXPLORTH=CALC_ELEM(reuse =EXPLORTH,
                 RESULTAT=EXPLORTH,
                 OPTION=('EPSI_ELGA_DEPL'),);



TEST_RESU(RESU=(_F(RESULTAT=EXPLORTH,
                   INST=TFIN,
                   NOM_CHAM='SIEF_ELGA',
                   NOM_CMP='SIXX',
                   MAILLE='MA1',
                   POINT=1,
                   VALE=-95.5,
                   REFERENCE='ANALYTIQUE',),
                _F(RESULTAT=EXPLORTH,
                   INST=TFIN,
                   NOM_CHAM='EPSI_ELGA_DEPL',
                   NOM_CMP='EPXX',
                   MAILLE='MA1',
                   POINT=1,
                   VALE=-0.000676254731722,
                   REFERENCE='AUTRE_ASTER',),
                   ),)



#  TEST SANS VALEUR DE COMPARAISON


EXPLTOUT=STAT_NON_LINE(MODELE=TROISD,
                     CHAM_MATER=MATT,
                     CARA_ELEM=ORIEN,
                     EXCIT=(_F(CHARGE=TRAC,
                               FONC_MULT=COEF,
                               TYPE_CHARGE='FIXE_CSTE',),),
                     COMP_INCR=(_F(RELATION='MONOCRISTAL',
                                   COMPOR=COMPORT,
                                   RESO_INTE='RUNGE_KUTTA_2',
                                   TOUT='OUI',),),
                     INCREMENT=(_F(LIST_INST=LINST,),),
                                     );

EXPLTOUT=CALC_ELEM(reuse =EXPLTOUT,
                 RESULTAT=EXPLTOUT,
                 OPTION=('EPSI_ELGA_DEPL','EPSP_ELGA',),);

TEST_RESU(RESU=(_F(RESULTAT=EXPLTOUT,
                   INST=TFIN,
                   NOM_CHAM='SIEF_ELGA',
                   NOM_CMP='SIXX',
                   MAILLE='MA1',
                   POINT=1,
                   VALE=-95.5,
                   REFERENCE='ANALYTIQUE',),
                _F(RESULTAT=EXPLTOUT,
                   INST=TFIN,
                   NOM_CHAM='EPSI_ELGA_DEPL',
                   NOM_CMP='EPXX',
                   MAILLE='MA1',
                   POINT=1,
                   VALE=-0.000657713498623,
                   REFERENCE='NON_REGRESSION',),),);


                   
                   
# IMPLICITE : TEST DE ECOU_VISC1, ECRO_LINE1, ECRO_CIN1

IMPL1=STAT_NON_LINE(MODELE=TROISD,INFO=1,
                     CHAM_MATER=MAT,
                     EXCIT=(_F(CHARGE=TRAC,
                               FONC_MULT=COEF,
                               TYPE_CHARGE='FIXE_CSTE',),),
                     COMP_INCR=(_F(RELATION='MONOCRISTAL',
                                   COMPOR=COMPOR1,
                                   DEFORMATION='PETIT',
                                   ITER_INTE_MAXI=100,
                                   ITER_INTE_PAS=10,
                                   RESO_INTE='IMPLICITE',
                                   TOUT='OUI',),),
                     INCREMENT=(_F(LIST_INST=LINST,),),
                     ARCHIVAGE=_F(LIST_INST=LINST,),
                     NEWTON=_F(REAC_ITER=1,),
                                     );

IMPL1=CALC_ELEM(reuse =IMPL1,
                 RESULTAT=IMPL1,
                 OPTION=('EPSI_ELGA_DEPL','EPSP_ELGA',),);

                   
# COMPARASION A VISC_CIN1_CHAB, MAIS PROBLEME DE SENSIBILITE AU PAS DE 
# TEMPS. CELA CONVERGE QUAND DELTAT TEND VERS 0

TEST_RESU(RESU=(_F(RESULTAT=IMPL1,
                   INST=TFIN,
                   NOM_CHAM='SIEF_ELGA',
                   NOM_CMP='SIXX',
                   MAILLE='MA1',
                   POINT=1,
                   VALE=-95.5,
                   REFERENCE='ANALYTIQUE',),
                _F(RESULTAT=IMPL1,
                   INST=TFIN,
                   NOM_CHAM='EPSI_ELGA_DEPL',
                   NOM_CMP='EPXX',
                   MAILLE='MA1',
                   POINT=1,
                   VALE=-0.000675943476554,
                   REFERENCE='AUTRE_ASTER',),
                _F(RESULTAT=IMPL1,
                   INST=TFIN,
                   NOM_CHAM='EPSP_ELGA',
                   NOM_CMP='EPXX',
                   MAILLE='MA1',
                   POINT=1,
                   VALE=-1.82299780001e-05,
                   PRECISION=(0.02,0.0001,),
                   REFERENCE='AUTRE_ASTER',),),);
                   
                   
                   
                   

# IMPLICITE : TEST DE L'ORTHOTROPIE                    
                   
                   
                   
IMPLORTH=STAT_NON_LINE(MODELE=TROISD,
                     CHAM_MATER=MATORTH,
                     EXCIT=(_F(CHARGE=TRAC,
                               FONC_MULT=COEF,
                               TYPE_CHARGE='FIXE_CSTE',),),
                     COMP_INCR=_F(RELATION='MONOCRISTAL',
                                   COMPOR=COMPORTH,
                                   DEFORMATION='PETIT',
                                   RESI_INTE_RELA=1e-06,
                                   ITER_INTE_MAXI=100,
                                   ITER_INTE_PAS=10,
                                   TOUT='OUI',),
                     INCREMENT=(_F(LIST_INST=LINST,),),
                    NEWTON=(_F( REAC_ITER=1,),),
                    CONVERGENCE=_F(RESI_GLOB_RELA=1e-06,
                                    ITER_GLOB_MAXI=100,),
                                     );

IMPLORTH=CALC_ELEM(reuse =IMPLORTH,
                 RESULTAT=IMPLORTH,
                 OPTION=('EPSI_ELGA_DEPL'),);



TEST_RESU(RESU=(_F(RESULTAT=IMPLORTH,
                   INST=TFIN,
                   NOM_CHAM='SIEF_ELGA',
                   NOM_CMP='SIXX',
                   MAILLE='MA1',
                   POINT=1,
                   VALE=-95.5,
                   REFERENCE='ANALYTIQUE',),
                _F(RESULTAT=IMPLORTH,
                   INST=TFIN,
                   NOM_CHAM='EPSI_ELGA_DEPL',
                   NOM_CMP='EPXX',
                   MAILLE='MA1',
                   POINT=1,
                   VALE=-0.000676254731722,
                   REFERENCE='AUTRE_ASTER',),
                   ),)


# INTEGRATION IMPLICITE
#  TEST SANS VALEUR DE COMPARAISON


IMPLTOUT=STAT_NON_LINE(MODELE=TROISD,
                     CHAM_MATER=MATT,
                     CARA_ELEM=ORIEN,
                     EXCIT=(_F(CHARGE=TRAC,
                               FONC_MULT=COEF,
                               TYPE_CHARGE='FIXE_CSTE',),),
                     COMP_INCR=(_F(RELATION='MONOCRISTAL',
                                   COMPOR=COMPORT,
                                   RESI_INTE_RELA=1e-06,
                                   ITER_INTE_MAXI=100,
                                   ITER_INTE_PAS=10,
                                   RESO_INTE='IMPLICITE',
                                   TOUT='OUI',),),
                     INCREMENT=(_F(LIST_INST=LINST,),),
                     NEWTON=(_F(PREDICTION='EXTRAPOL',
                                MATRICE='ELASTIQUE',
                                REAC_ITER=1,),),
                     CONVERGENCE=(_F(RESI_GLOB_RELA=1e-06,
                                     ITER_GLOB_MAXI=100,),),);

IMPLTOUT=CALC_ELEM(reuse =IMPLTOUT,
                 RESULTAT=IMPLTOUT,
                 OPTION=('EPSI_ELGA_DEPL','EPSP_ELGA',),);

TEST_RESU(RESU=(_F(RESULTAT=IMPLTOUT,
                   INST=TFIN,
                   NOM_CHAM='SIEF_ELGA',
                   NOM_CMP='SIXX',
                   MAILLE='MA1',
                   POINT=1,
                   VALE=-95.5,
                   REFERENCE='ANALYTIQUE',),
                _F(RESULTAT=IMPLTOUT,
                   INST=TFIN,
                   NOM_CHAM='EPSI_ELGA_DEPL',
                   NOM_CMP='EPXX',
                   MAILLE='MA1',
                   POINT=1,
                   VALE=-0.000657713498623,
                   REFERENCE='NON_REGRESSION',),),);


FIN();

                   
