# MODIF  DATE 07/02/2012   AUTEUR PELLET J.PELLET 
# TITRE CYLINDRE EN INCOMPRESSIBLE GRANDES DEFORMATIONS (HEXA20) 3D
# ssnv112a.para = tps_job 60 mem_job 128Mo mem_aster 95 ncpus 1 liste_test S
#            CONFIGURATION MANAGEMENT OF EDF VERSION
# ======================================================================
# COPYRIGHT (C) 1991 - 2012  EDF R&D                  WWW.CODE-ASTER.ORG
# THIS PROGRAM IS FREE SOFTWARE; YOU CAN REDISTRIBUTE IT AND/OR MODIFY
# IT UNDER THE TERMS OF THE GNU GENERAL PUBLIC LICENSE AS PUBLISHED BY
# THE FREE SOFTWARE FOUNDATION; EITHER VERSION 2 OF THE LICENSE, OR
# (AT YOUR OPTION) ANY LATER VERSION.
#
# THIS PROGRAM IS DISTRIBUTED IN THE HOPE THAT IT WILL BE USEFUL, BUT
# WITHOUT ANY WARRANTY; WITHOUT EVEN THE IMPLIED WARRANTY OF
# MERCHANTABILITY OR FITNESS FOR A PARTICULAR PURPOSE. SEE THE GNU
# GENERAL PUBLIC LICENSE FOR MORE DETAILS.
#
# YOU SHOULD HAVE RECEIVED A COPY OF THE GNU GENERAL PUBLIC LICENSE
# ALONG WITH THIS PROGRAM; IF NOT, WRITE TO EDF R&D CODE_ASTER,
#    1 AVENUE DU GENERAL DE GAULLE, 92141 CLAMART CEDEX, FRANCE.
# ======================================================================
#
# ----------------------------------------------------------------------
#
# CYLINDRE CREUX EN INCOMPRESSIBLE GRANDES DEFORMATIONS(NU=0.4999)
# SOUS DEPLACEMENT RADIAL (U0=6.10E-5)
#
# MODELISATION : ELEMENTS MECANIQUE 3D INCOMP.(HEXA20+QUAD8)
# MAILLAGE     : GIBI
# ----------------------------------------------------------------------
# GROUPES DE NOEUDS ET MAILLES :
# GRNO: A B C D E F  NOEUMI
# GRMA: FACEEF     FACEAE   FACEAB   FACSUP   FACINF VOLUME
# ----------------------------------------------------------------------

DEBUT(CODE=_F(NOM='SSNV112A',
NIV_PUB_WEB='INTERNET',),DEBUG=_F(SDVERI='OUI'))

M=LIRE_MAILLAGE(FORMAT='MED',);

MO=AFFE_MODELE(MAILLAGE=M,
               VERIF='MAILLE',
               AFFE=_F(GROUP_MA=('VOLUME','FACEEF','FACEAE','FACEAB','FACSUP','FACINF',),
                       PHENOMENE='MECANIQUE',
                       MODELISATION='3D_INCO_GD',),);

M=MODI_MAILLAGE(reuse =M,
                MAILLAGE=M,
                ORIE_PEAU_3D=_F(GROUP_MA=('FACEAB','FACSUP','FACINF','FACEEF','FACEAE',),),);


MA=DEFI_MATERIAU(ELAS=_F(E=200000.,
                         NU=0.49999,
                         ALPHA=0.,),
                 ECRO_LINE=_F(D_SIGM_EPSI=1000.,
                              SY=1.E9,),);

CM=AFFE_MATERIAU(MAILLAGE=M,
                 AFFE=_F(TOUT='OUI',
                         MATER=MA,),);

CH=AFFE_CHAR_MECA(MODELE=MO,
                  DDL_IMPO=(_F(GROUP_MA='FACEAB',
                               DX=0.,),
                            _F(GROUP_MA='FACSUP',
                               DZ=0.,),
                            _F(GROUP_MA='FACINF',
                               DZ=0.,),),
                  FACE_IMPO=(_F(GROUP_MA='FACEEF',
                                DNOR=0.,),
                             _F(GROUP_MA='FACEAE',
                                DNOR=-6.E-5,),),);

INSTANTS=DEFI_LIST_REEL(DEBUT=0.,
                        INTERVALLE=_F(JUSQU_A=1.,
                                      NOMBRE=1,),);

RAMPE=DEFI_FONCTION(NOM_PARA='INST',VALE=(0.,0.,
                          1.,1.,
                          ),);
# LES SYSTEMES LINEAIRES SONT DIFFICILES A RESOUDRE.
# ON DEVERROUILLE LA DETECTION DE SINGULARITE. LE PROCESSUS DE NEWTON
# CORRIGE LES EVENTUELLES DERIVES.
EVOL=STAT_NON_LINE(MODELE=MO,INFO=2,
                   CHAM_MATER=CM,
                   EXCIT=_F(CHARGE=CH,
                            FONC_MULT=RAMPE,),
                   COMP_INCR=_F(RELATION='VMIS_ISOT_LINE',
                                DEFORMATION='SIMO_MIEHE',),
                   INCREMENT=_F(LIST_INST=INSTANTS,),
                   NEWTON=_F(REAC_ITER=1,),
                   CONVERGENCE=_F(SIGM_REFE=60.0,
                                  EPSI_REFE=3.E-4,
                                  RESI_REFE_RELA=1.E-3,),
                   SOLVEUR=_F(METHODE='MUMPS',NPREC=-1,
                              PCENT_PIVOT=30,),);

# REMARQUE : STRICTO SENSU, LE CALCUL DE ERME_ELEM EST FAUX CAR
#            DES BORDS A CONTRAINTE NULLE N'ONT PAS ETE DEFINIS DANS LE
#            MAILLAGE ET A FORTIORI DANS LE CHARGEMENT
#            IL FAUDRA COMPLETER LE MAILLAGE UN JOUR. G. NICOLAS.
EVOL=CALC_ELEM(reuse =EVOL,
               RESULTAT=EVOL,
               OPTION=('SIGM_ELNO','SIEQ_ELNO',),);

EVOL=CALC_ERREUR(reuse =EVOL,
                 RESULTAT=EVOL,
                 OPTION=('ERME_ELEM','ERME_ELNO',),);

EVOL=CALC_NO(reuse =EVOL,
             RESULTAT=EVOL,
             OPTION=('SIGM_NOEU','SIEQ_NOEU',),);

#--------------------------------------------------------------
#       COMPARAISON DES RESULTATS A LA SOLUTION ANALYTIQUE
#        POUR UN  SOLIDE INCOMPRESSIBLE NU = 0.5
#---------------------------------------------------------------

TEST_RESU(RESU=(_F(RESULTAT=EVOL,
                   INST=1.0,
                   NOM_CHAM='DEPL',
                   NOM_CMP='DX',
                   GROUP_NO='A',
                   VALE=0.0,
                   CRITERE='ABSOLU',
                   PRECISION=1e-05,
                   REFERENCE='ANALYTIQUE',),
                _F(RESULTAT=EVOL,
                   INST=1.0,
                   NOM_CHAM='DEPL',
                   NOM_CMP='DY',
                   GROUP_NO='A',
                   VALE=6e-05,
                   CRITERE='RELATIF',
                   PRECISION=0.001,
                   REFERENCE='ANALYTIQUE',),
                _F(RESULTAT=EVOL,
                   INST=1.0,
                   NOM_CHAM='DEPL',
                   NOM_CMP='DX',
                   GROUP_NO='F',
                   VALE=-2.1217941e-05,
                   CRITERE='RELATIF',
                   PRECISION=0.001,
                   REFERENCE='ANALYTIQUE',),
                _F(RESULTAT=EVOL,
                   INST=1.0,
                   NOM_CHAM='DEPL',
                   NOM_CMP='DY',
                   GROUP_NO='F',
                   VALE=2.1217941e-05,
                   CRITERE='RELATIF',
                   PRECISION=0.001,
                   REFERENCE='ANALYTIQUE',),),);

TEST_RESU(RESU=(_F(RESULTAT=EVOL,
                   NUME_ORDRE=1,
                   NOM_CHAM='SIGM_NOEU',
                   NOM_CMP='SIXX',
                   GROUP_NO='A',
                   VALE=99.9566,
                   CRITERE='RELATIF',
                   PRECISION=0.01,
                   REFERENCE='ANALYTIQUE',),
                _F(RESULTAT=EVOL,
                   NUME_ORDRE=1,
                   NOM_CHAM='SIGM_NOEU',
                   NOM_CMP='SIYY',
                   GROUP_NO='A',
                   VALE=-59.9955,
                   CRITERE='RELATIF',
                   PRECISION=0.02,
                   REFERENCE='ANALYTIQUE',),
                _F(RESULTAT=EVOL,
                   NUME_ORDRE=1,
                   NOM_CHAM='SIGM_NOEU',
                   NOM_CMP='SIZZ',
                   GROUP_NO='A',
                   VALE=19.9326,
                   CRITERE='RELATIF',
                   PRECISION=0.035,
                   REFERENCE='ANALYTIQUE',),
                _F(RESULTAT=EVOL,
                   NUME_ORDRE=1,
                   NOM_CHAM='SIGM_NOEU',
                   NOM_CMP='SIXY',
                   GROUP_NO='A',
                   VALE=0.0,
                   CRITERE='ABSOLU',
                   PRECISION=1.2,
                   REFERENCE='ANALYTIQUE',),
                _F(RESULTAT=EVOL,
                   NUME_ORDRE=1,
                   NOM_CHAM='SIGM_NOEU',
                   NOM_CMP='SIXX',
                   GROUP_NO='F',
                   VALE=20.003,
                   CRITERE='RELATIF',
                   PRECISION=0.005,
                   REFERENCE='ANALYTIQUE',),
                _F(RESULTAT=EVOL,
                   NUME_ORDRE=1,
                   NOM_CHAM='SIGM_NOEU',
                   NOM_CMP='SIYY',
                   GROUP_NO='F',
                   VALE=20.003,
                   CRITERE='RELATIF',
                   PRECISION=0.005,
                   REFERENCE='ANALYTIQUE',),
                _F(RESULTAT=EVOL,
                   NUME_ORDRE=1,
                   NOM_CHAM='SIGM_NOEU',
                   NOM_CMP='SIZZ',
                   GROUP_NO='F',
                   VALE=20.003,
                   CRITERE='RELATIF',
                   PRECISION=0.005,
                   REFERENCE='ANALYTIQUE',),
                _F(RESULTAT=EVOL,
                   NUME_ORDRE=1,
                   NOM_CHAM='SIGM_NOEU',
                   NOM_CMP='SIXY',
                   GROUP_NO='F',
                   VALE=20.003,
                   CRITERE='RELATIF',
                   PRECISION=0.005,
                   REFERENCE='ANALYTIQUE',),),);

TEST_RESU(RESU=(_F(RESULTAT=EVOL,
                   INST=1.0,
                   NOM_CHAM='SIEQ_NOEU',
                   NOM_CMP='VMIS',
                   MAILLE='M1',
                   GROUP_NO='A',
                   VALE=138.5226,
                   CRITERE='RELATIF',
                   PRECISION=0.02,
                   REFERENCE='ANALYTIQUE',),
                _F(RESULTAT=EVOL,
                   INST=1.0,
                   NOM_CHAM='SIEQ_NOEU',
                   NOM_CMP='TRESCA',
                   MAILLE='M1',
                   GROUP_NO='A',
                   VALE=159.9521,
                   CRITERE='RELATIF',
                   PRECISION=0.02,
                   REFERENCE='ANALYTIQUE',),
                _F(RESULTAT=EVOL,
                   INST=1.0,
                   NOM_CHAM='SIEQ_NOEU',
                   NOM_CMP='PRIN_1',
                   MAILLE='M1',
                   GROUP_NO='A',
                   VALE=-59.9955,
                   CRITERE='RELATIF',
                   PRECISION=0.02,
                   REFERENCE='ANALYTIQUE',),
                _F(RESULTAT=EVOL,
                   INST=1.0,
                   NOM_CHAM='SIEQ_NOEU',
                   NOM_CMP='PRIN_2',
                   MAILLE='M1',
                   GROUP_NO='A',
                   VALE=19.9326,
                   CRITERE='RELATIF',
                   PRECISION=0.035,
                   REFERENCE='ANALYTIQUE',),
                _F(RESULTAT=EVOL,
                   INST=1.0,
                   NOM_CHAM='SIEQ_NOEU',
                   NOM_CMP='PRIN_3',
                   MAILLE='M1',
                   GROUP_NO='A',
                   VALE=99.9566,
                   CRITERE='RELATIF',
                   PRECISION=0.01,
                   REFERENCE='ANALYTIQUE',),
                _F(RESULTAT=EVOL,
                   INST=1.0,
                   NOM_CHAM='SIEQ_NOEU',
                   NOM_CMP='VMIS_SG',
                   MAILLE='M1',
                   GROUP_NO='A',
                   VALE=138.5226,
                   CRITERE='RELATIF',
                   PRECISION=0.02,
                   REFERENCE='ANALYTIQUE',),),);

#--------------------------------------------------------------------------------
#  TEST SUR L'ESTIMATEUR D'ERREUR EN RESIDU

TEST_RESU(RESU=_F(RESULTAT=EVOL,
                  INST=1.0,
                  NOM_CHAM='ERME_ELEM',
                  NOM_CMP='NUEST',
                  MAILLE='M1',
                  POINT=1,
                  VALE=0.14871391,
                  CRITERE='RELATIF',
                  PRECISION=1.1e-06,
                  REFERENCE='NON_REGRESSION',
                  VERSION='9.05.04',),);

TEST_RESU(RESU=_F(RESULTAT=EVOL,
                  INST=1.0,
                  NOM_CHAM='ERME_ELNO',
                  NOM_CMP='ERREST',
                  MAILLE='M1',
                  GROUP_NO='A',
                  VALE=9.522966756e-05,
                  CRITERE='RELATIF',
                  PRECISION=1.5e-06,
                  REFERENCE='NON_REGRESSION',
                  VERSION='9.05.04',),);

FIN();

#

