# MODIF  DATE 12/03/2007   AUTEUR GENIAUT S.GENIAUT 
# TITRE FISSURE DEBOUCHANTE DANS UNE PLAQUE 3D DE LARGEUR FINIE AVEC X-FEM
#            CONFIGURATION MANAGEMENT OF EDF VERSION
# ======================================================================
# COPYRIGHT (C) 1991 - 2007  EDF R&D                  WWW.CODE-ASTER.ORG
# THIS PROGRAM IS FREE SOFTWARE; YOU CAN REDISTRIBUTE IT AND/OR MODIFY  
# IT UNDER THE TERMS OF THE GNU GENERAL PUBLIC LICENSE AS PUBLISHED BY  
# THE FREE SOFTWARE FOUNDATION; EITHER VERSION 2 OF THE LICENSE, OR     
# (AT YOUR OPTION) ANY LATER VERSION.                                                    
#                                                                       
# THIS PROGRAM IS DISTRIBUTED IN THE HOPE THAT IT WILL BE USEFUL, BUT   
# WITHOUT ANY WARRANTY; WITHOUT EVEN THE IMPLIED WARRANTY OF            
# MERCHANTABILITY OR FITNESS FOR A PARTICULAR PURPOSE. SEE THE GNU      
# GENERAL PUBLIC LICENSE FOR MORE DETAILS.                              
#                                                                       
# YOU SHOULD HAVE RECEIVED A COPY OF THE GNU GENERAL PUBLIC LICENSE     
# ALONG WITH THIS PROGRAM; IF NOT, WRITE TO EDF R&D CODE_ASTER,         
#    1 AVENUE DU GENERAL DE GAULLE, 92141 CLAMART CEDEX, FRANCE.        
# ======================================================================

DEBUT(CODE=_F(NOM='SSNV185M',NIV_PUB_WEB='INTERNET'),)

#----------------------------------------------
#             MAILLAGE : hexa_3_11_31.mgib
#----------------------------------------------

PRE_GIBI();

MAILLAG1=LIRE_MAILLAGE(INFO=1,);

MAILLAG2=CREA_MAILLAGE(MAILLAGE=MAILLAG1,
                       LINE_QUAD=_F(GROUP_MA=('VOL','SURFGAU','SURFDRO','SURFFRO','SURFBAC','SURFINF','SURFSUP'),),);

#----------------------------------------
# epaisseur (suivant x)
lx = 1.

# largeur (suivant y)
ly = 10.

# hauteur (suivant z)
lz = 30.


# nb element suivant la largeur
ny = 11.

# nb element suivant la hauteur
nz = 31.
#----------------------------------------


# tailles des elements suivant y et z
hy = ly/ny
hz = lz/nz

# creation des noeuds servant a bloquer les modes rigides
MAILLAG2=DEFI_GROUP(reuse =MAILLAG2,
                 MAILLAGE=MAILLAG2,
                 CREA_GROUP_NO=(
                                 _F(NOM='A1',OPTION='ENV_SPHERE',POINT=(lx, 0., (lz-hz)/2.),PRECISION=1/(8.*nz),RAYON=1/(8.*nz)),
                                 _F(NOM='A2',OPTION='ENV_SPHERE',POINT=(lx, 0., (lz+hz)/2.),PRECISION=1/(8.*nz),RAYON=1/(8.*nz)),
                                 _F(NOM='B1',OPTION='ENV_SPHERE',POINT=(0., 0., (lz-hz)/2.),PRECISION=1/(8.*nz),RAYON=1/(8.*nz)),
                                 _F(NOM='B2',OPTION='ENV_SPHERE',POINT=(0., 0., (lz+hz)/2.),PRECISION=1/(8.*nz),RAYON=1/(8.*nz)),
                                 _F(NOM='C1',OPTION='ENV_SPHERE',POINT=(lx, 1.*hy, (lz-hz)/2.),PRECISION=1/(8.*nz),RAYON=1/(8.*nz)),
                                 _F(NOM='C2',OPTION='ENV_SPHERE',POINT=(lx, 1.*hy, (lz+hz)/2.),PRECISION=1/(8.*nz),RAYON=1/(8.*nz)),
                                ),
                 );


#----------------------------------------------
#                   MODELE ET FISSURE
#----------------------------------------------

MODELEIN=AFFE_MODELE(MAILLAGE=MAILLAG2,
                     AFFE=_F(GROUP_MA=('VOL','SURFGAU','SURFDRO','SURFFRO','SURFBAC','SURFINF','SURFSUP'),
                             PHENOMENE='MECANIQUE',
                             MODELISATION='3D_XFEM',),
                    );

LN=FORMULE(NOM_PARA=('X','Y','Z'),VALE='Z-lz/2.');
LT=FORMULE(NOM_PARA=('X','Y','Z'),VALE='-Y+ly/2.');

FISS=DEFI_FISS_XFEM(MODELE=MODELEIN,
                    DEFI_FISS=_F(FONC_LT=LT,FONC_LN=LN,),
                    GROUP_MA_ENRI='VOL',
                    RAYON_ENRI=2.,
                    ORIE_FOND=_F(PFON_INI= (0. ,ly/2.    ,lz/2. ),
                                 VECT_ORIE=(0. ,0.       ,1.    ),
                                 PT_ORIGIN=(0. ,3.*ly/4. ,lz/2. ),),
                 );

MODELEK=MODI_MODELE_XFEM(MODELE_IN=MODELEIN,FISSURE=FISS,INFO=1,);

CHXFEM=AFFE_CHAR_MECA(MODELE=MODELEK,LIAISON_XFEM='OUI',INFO=1,);

#----------------------------------------------
#                   MATERIAU
#----------------------------------------------

E=100.0E6
nu=0.
rho=7800.
ACIER=DEFI_MATERIAU(ELAS=_F(E=E,NU=nu,RHO=rho,),);

CHAMPMA1=AFFE_MATERIAU(MAILLAGE=MAILLAG2,
                       MODELE=MODELEK,
                       AFFE=_F(TOUT = 'OUI',
                                MATER=ACIER,
                                TEMP_REF=0.0,),
                             );


#----------------------------------------------------------
#                   CHARGEMENT : CHAMP AUXILIAIRE MODE III
#----------------------------------------------------------

# blocage des modes rigides 
CH=AFFE_CHAR_MECA(MODELE=MODELEK,
                  LIAISON_DDL=(
                               _F(GROUP_NO=('A1','A2',),DDL=('DX','DX',),COEF_MULT=(0.5,0.5),COEF_IMPO=0.,),
                               _F(GROUP_NO=('A1','A2',),DDL=('DY','DY',),COEF_MULT=(0.5,0.5),COEF_IMPO=0.,),
                               _F(GROUP_NO=('A1','A2',),DDL=('DZ','DZ',),COEF_MULT=(0.5,0.5),COEF_IMPO=0.,),
                               _F(GROUP_NO=('B1','B2',),DDL=('DZ','DZ',),COEF_MULT=(0.5,0.5),COEF_IMPO=0.,),
                               _F(GROUP_NO=('C1','C2',),DDL=('DX','DX',),COEF_MULT=(0.5,0.5),COEF_IMPO=0.,),
                               _F(GROUP_NO=('C1','C2',),DDL=('DZ','DZ',),COEF_MULT=(0.5,0.5),COEF_IMPO=0.,),
                              ),
                  );

# formule des coordonnees polaires dans la base locale au fond de fissure
R = FORMULE(NOM_PARA=('X','Y','Z'),VALE='sqrt((Y-5.)**2+(Z-15.)**2)');
T = FORMULE(NOM_PARA=('X','Y','Z'),VALE='atan2(Z-15.,-Y+5.)');

coef=1./sqrt(2.*pi)

# definition des contraintes analytiques SIG13 et SIG23
SIG13 = FORMULE(NOM_PARA=('X','Y','Z'),VALE='-1.*coef/sqrt(R(X,Y,Z))*sin(T(X,Y,Z)/2.)');
SIG23 = FORMULE(NOM_PARA=('X','Y','Z'),VALE='coef/sqrt(R(X,Y,Z))*cos(T(X,Y,Z)/2.)');

# definition des opposees des contraintes analytiques -SIG13 et -SIG23
OSIG13 = FORMULE(NOM_PARA=('X','Y','Z'),VALE='coef/sqrt(R(X,Y,Z))*sin(T(X,Y,Z)/2.)');
OSIG23 = FORMULE(NOM_PARA=('X','Y','Z'),VALE='-1.*coef/sqrt(R(X,Y,Z))*cos(T(X,Y,Z)/2.)');

# chargement correspondant a un mode III pur
CHF=AFFE_CHAR_MECA_F(MODELE=MODELEK,
                     FORCE_FACE=(
                                 _F(GROUP_MA='SURFGAU',FX=OSIG13,),
                                 _F(GROUP_MA='SURFDRO',FX=SIG13,),
                                 _F(GROUP_MA='SURFSUP',FX=OSIG23,),
                                 _F(GROUP_MA='SURFINF',FX=SIG23,),
                                 _F(GROUP_MA='SURFFRO',FZ=OSIG23,FY=SIG13),
                                 _F(GROUP_MA='SURFBAC',FZ=SIG23,FY=OSIG13),
                                ),
                      );


#----------------------------------------------
#                   RESOLUTION
#----------------------------------------------

L_INS1=DEFI_LIST_REEL(DEBUT=0.0,INTERVALLE=_F(JUSQU_A=1.0,NOMBRE=1,),);

UTOT1=STAT_NON_LINE(MODELE=MODELEK,
                   CHAM_MATER=CHAMPMA1,
                   EXCIT=(_F(CHARGE=CHXFEM,),
                          _F(CHARGE=CHF),
                          _F(CHARGE=CH),),
                   COMP_ELAS=_F(RELATION='ELAS',
                                GROUP_MA='VOL',),
                   INCREMENT=_F(LIST_INST=L_INS1,
                                INST_FIN=1.0,),
                   SOLVEUR=_F(PCENT_PIVOT = 200,METHODE='MUMPS',),
                   NEWTON=_F(REAC_ITER=1,),
                   ARCHIVAGE=_F(CHAM_EXCLU='VARI_ELGA',),
                   INFO=1,);

#------------------------------------------------------------------------
# POST-TRAITEMENT : VISUALISATION DES DEPLACEMENTS
#------------------------------------------------------------------------

MA_XFEM=POST_MAIL_XFEM(MODELE=MODELEK);

# mis en commentire suite a la fiche 10572
#RES_XFEM=POST_CHAM_XFEM(MAILLAGE=MA_XFEM,
#                        MODELE=MODELEK,
#                        NOM_CHAM='DEPL',
#                        RESULTAT=UTOT1)

#IMPR_RESU(FORMAT='GMSH',UNITE=81,RESU=_F(RESULTAT=RES_XFEM));

#------------------------------------------------------------------------
# POST-TRAITEMENT : CALCUL DES SIFS PAR LA METHODE ENERGETIQUE AVEC X-FEM
#------------------------------------------------------------------------

# TEST AVEC PLUSIEURS COURONNES
RI=[2. , 0.666 , 1. , 1. , 1. , 2.1]
RS=[4. , 1.666 , 2. , 3. , 4. , 3.9]

nbc=len(RI)
SIF = [None]*nbc

for i in range(0,nbc) :

   SIF[i]=CALC_G(RESULTAT=UTOT1,
                 SYME_CHAR='SANS',
                 COMP_ELAS=_F(RELATION='ELAS',),
                 OPTION='CALC_K_G',
                 THETA=_F(FISSURE=FISS,
                          R_INF=RI[i],
                          R_SUP=RS[i],),
                 LISSAGE=_F(LISSAGE_THETA='LAGRANGE',
                            LISSAGE_G='LAGRANGE',),
                 INFO=2,);

   IMPR_TABLE(TABLE=SIF[i],);

# SOLUTION ANALYTIQUE (MODE III PUR)
K1REF=0.
K2REF=0.
K3REF=1.

prec_k3 = 0.05
 
for i in range(0,nbc) :

   TEST_TABLE(TABLE=SIF[i],
              NOM_PARA='K1_LOCAL',
              TYPE_TEST='MAX',
              VALE=K1REF,
              CRITERE='ABSOLU',
              PRECISION=0.01,
              REFERENCE='ANALYTIQUE',);

   TEST_TABLE(TABLE=SIF[i],
              NOM_PARA='K1_LOCAL',
              TYPE_TEST='MIN',
              VALE=K1REF,
              CRITERE='ABSOLU',
              PRECISION=0.01,
              REFERENCE='ANALYTIQUE',);

   TEST_TABLE(TABLE=SIF[i],
              NOM_PARA='K2_LOCAL',
              TYPE_TEST='MAX',
              VALE=K2REF,
              CRITERE='ABSOLU',
              PRECISION=0.01,
              REFERENCE='ANALYTIQUE',);

   TEST_TABLE(TABLE=SIF[i],
              NOM_PARA='K2_LOCAL',
              TYPE_TEST='MIN',
              VALE=K2REF,
              CRITERE='ABSOLU',
              PRECISION=0.01,
              REFERENCE='ANALYTIQUE',);

   TEST_TABLE(TABLE=SIF[i],
              NOM_PARA='K3_LOCAL',
              TYPE_TEST='MAX',
              VALE=K3REF,
              CRITERE='RELATIF',
              PRECISION=prec_k3,
              REFERENCE='ANALYTIQUE',);

   TEST_TABLE(TABLE=SIF[i],
              NOM_PARA='K3_LOCAL',
              TYPE_TEST='MIN',
              VALE=K3REF,
              CRITERE='RELATIF',
              PRECISION=prec_k3,
              REFERENCE='ANALYTIQUE',);


FIN();
