# MODIF  DATE 20/10/2011   AUTEUR SELLENET N.SELLENET 
# TITRE PROPAGATION DE FISSURE DEBOUCHANTE DANS UNE PLAQUE 3D DE LARGEUR FINIE AVEC X-FEM
# ssnv185s.para = tps_job 300 mem_job 1024Mo liste_test S
#            CONFIGURATION MANAGEMENT OF EDF VERSION
# ======================================================================
# COPYRIGHT (C) 1991 - 2011  EDF R&D                  WWW.CODE-ASTER.ORG
# THIS PROGRAM IS FREE SOFTWARE; YOU CAN REDISTRIBUTE IT AND/OR MODIFY  
# IT UNDER THE TERMS OF THE GNU GENERAL PUBLIC LICENSE AS PUBLISHED BY  
# THE FREE SOFTWARE FOUNDATION; EITHER VERSION 2 OF THE LICENSE, OR     
# (AT YOUR OPTION) ANY LATER VERSION.                                                    
#                                                                       
# THIS PROGRAM IS DISTRIBUTED IN THE HOPE THAT IT WILL BE USEFUL, BUT   
# WITHOUT ANY WARRANTY; WITHOUT EVEN THE IMPLIED WARRANTY OF            
# MERCHANTABILITY OR FITNESS FOR A PARTICULAR PURPOSE. SEE THE GNU      
# GENERAL PUBLIC LICENSE FOR MORE DETAILS.                              
#                                                                       
# YOU SHOULD HAVE RECEIVED A COPY OF THE GNU GENERAL PUBLIC LICENSE     
# ALONG WITH THIS PROGRAM; IF NOT, WRITE TO EDF R&D CODE_ASTER,         
#    1 AVENUE DU GENERAL DE GAULLE, 92141 CLAMART CEDEX, FRANCE.        
# ======================================================================


DEBUT(CODE=_F(NOM='SSNV185S', NIV_PUB_WEB='INTERNET',VISU_EFICAS='NON'),DEBUG=_F(SDVERI='OUI'))

# MODELISATION S : X-FEM PROPAGATION AVEC SIMPLEXE EN ROTATION

#----------------------------------------------
#                 MAILLAGE
#----------------------------------------------

MAILLAG1=LIRE_MAILLAGE(FORMAT='MED',INFO=1,);

MAILLAG1=DEFI_GROUP(reuse =MAILLAG1,
                    MAILLAGE=MAILLAG1,
                    CREA_GROUP_NO=_F(GROUP_MA='VOL',),);

#----------------------------------------------
#                   MODELE
#----------------------------------------------

MODELE = [None]*5

MODELE[0]=AFFE_MODELE(MAILLAGE=MAILLAG1,
                      AFFE=(_F(GROUP_MA=('VOL',),
                               PHENOMENE='MECANIQUE',
                               MODELISATION='3D',),
                            _F(GROUP_MA=('SURFINF','SURFSUP',),
                               PHENOMENE='MECANIQUE',
                               MODELISATION='3D',),),);

MAILLAG1=MODI_MAILLAGE(reuse =MAILLAG1,
                       MAILLAGE=MAILLAG1,
                       ORIE_PEAU_3D=_F(GROUP_MA=('SURFSUP','SURFINF',),),
                       );

#----------------------------------------------
#                   MATERIAU
#----------------------------------------------

E=205000.0E6
nu=0.
rho=7800.
ACIER=DEFI_MATERIAU(ELAS=_F(E=E,NU=nu,RHO=rho,),);

CHAMPMA1=AFFE_MATERIAU(MAILLAGE=MAILLAG1,
                       MODELE=MODELE[0],
                       AFFE=_F(TOUT = 'OUI',
                                MATER=ACIER,
                                ),
                             );

#----------------------------------------------
#                   FISSURE
#----------------------------------------------

# PARAMETRES DE LA FISSURE
a=4.9
b=10.
LN=FORMULE(NOM_PARA=('X','Y','Z'),VALE='Z-15.');
LT=FORMULE(NOM_PARA=('X','Y','Z'),VALE='b-a-Y');

FISS = [None]*5

FISS[0]=DEFI_FISS_XFEM(MODELE=MODELE[0],
                       DEFI_FISS=_F(FONC_LT=LT,FONC_LN=LN,),
                       ORIE_FOND=_F(PFON_INI= (0. ,5. ,15. ),
                                    VECT_ORIE=(0. ,0. ,1. ),
                                    POINT_ORIG=(0. ,20. ,15. ),),
                       );  

#----------------------------------------------
#                   CHARGEMENTS
#----------------------------------------------

NPAS = 3
NPAS = NPAS +2

LSN = [None]*NPAS 
LST = [None]*NPAS 


CH1=AFFE_CHAR_MECA(MODELE=MODELE[0],
                   DDL_IMPO=_F(GROUP_MA='SURFINF',DX=0.0,DY=0.0,DZ=0.0,),);


#----------------------------------------------
#         PROPAGATION SUR 3 PAS DE TEMPS
#----------------------------------------------

CHXFEM = [None]*NPAS
RESU = [None]*NPAS
SIF = [None]*NPAS
LSN = [None]*NPAS
LST = [None]*NPAS
CHRX = [None]*NPAS

L_INS1=DEFI_LIST_REEL(DEBUT=0.0,INTERVALLE=_F(JUSQU_A=3.0,NOMBRE=3,),);
#RI = 1.
#RS = 2.
RI = 1.
RS = 2.

for i in range(1,NPAS-1) :

   MODELE[i]=MODI_MODELE_XFEM(MODELE_IN=MODELE[0],FISSURE=FISS[i-1],INFO=1,);

   CHXFEM[i]=AFFE_CHAR_MECA(MODELE=MODELE[i],LIAISON_XFEM='OUI',INFO=1,);

   CHRX[i]=AFFE_CHAR_MECA(MODELE=MODELE[i],
                       ROTATION=_F(VITESSE = 10.,
                                   AXE = (1.,0.,0.,),
                                   CENTRE=(0.,10.,0.,),),
                       ); 

   RESU[i]=MECA_STATIQUE(MODELE=MODELE[i],
                         CHAM_MATER=CHAMPMA1,
                         EXCIT=(_F(CHARGE=CHXFEM[i],),
                                _F(CHARGE=CH1,),
                                _F(CHARGE=CHRX[i],),),
                         INFO=1,);

   SIF[i]=CALC_G        (RESULTAT=RESU[i],
                         OPTION='CALC_K_G',
                         NUME_ORDRE=1,
                         THETA=_F( FISSURE=FISS[i-1],
                                   NB_POINT_FOND = 3,
                                   R_INF=RI,
                                   R_SUP=RS,),
                         LISSAGE=_F( LISSAGE_THETA='LAGRANGE',
                                     LISSAGE_G='LAGRANGE',
                                     DEGRE=0,),);

   IMPR_TABLE(TABLE=SIF[i],);

   if ( i != NPAS-2 ) :
      FISS[i] = CO('FISS_%d'%(i))
      PROPA_FISS(METHODE_PROPA='SIMPLEXE',
                 MODELE=MODELE[i],
                 FISSURE=_F(FISS_ACTUELLE=FISS[i-1],
                            FISS_PROPAGEE=FISS[i],
                            TABLE=SIF[i],
                            NB_POINT_FOND = 3,
                           ),
                 RAYON=RS,
                 ZONE_MAJ='TOUT',
                 DA_MAX=0.5,
                 INFO=1,
                 COMP_LINE=_F(COEF_MULT_MINI=0.,
                              COEF_MULT_MAXI=1.,),
                 LOI_PROPA=_F(LOI='PARIS',
                              C=1.0,
                              M=0.5,
                              N=0.0,
                              MATER=ACIER,),
                );

#     LEVEL SET AU PAS DE PROPAGATION COURANT
      LSN[i]=CREA_CHAMP(TYPE_CHAM='NOEU_NEUT_R',
                          OPERATION='EXTR',
                          FISSURE=FISS[i],
                          NOM_CHAM='LNNO',);
      LST[i]=CREA_CHAMP(TYPE_CHAM='NOEU_NEUT_R',
                          OPERATION='EXTR',
                          FISSURE=FISS[i],
                          NOM_CHAM='LTNO',);

      IMPR_RESU(FORMAT='MED',
                UNITE=30,
                RESU=_F(CHAM_GD=LSN[i],),);
      IMPR_RESU(FORMAT='MED',
                UNITE=30,
                RESU=_F(CHAM_GD=LST[i],),);

# LES VALEURS DE NON REGRESSION SONT CELLES DE ASTER4
TEST_TABLE(TABLE=SIF[i],
               NOM_PARA='K1',
               TYPE_TEST='MAX',
               VALE=3.6692328990005E+09,
               CRITERE='RELATIF',               
               PRECISION=1.E-3,
               REFERENCE='NON_REGRESSION',),

TEST_TABLE(TABLE=SIF[i],
               NOM_PARA='K1',
               TYPE_TEST='MIN',
               VALE=3.6692328990005E+09,
               CRITERE='RELATIF',               
               PRECISION=1.E-3,
               REFERENCE='NON_REGRESSION',),
FIN();
