# TITRE CONTACT/FROTTEMENT POULIE
#            CONFIGURATION MANAGEMENT OF EDF VERSION
# ======================================================================
# COPYRIGHT (C) 1991 - 2012  EDF R&D                  WWW.CODE-ASTER.ORG
# THIS PROGRAM IS FREE SOFTWARE; YOU CAN REDISTRIBUTE IT AND/OR MODIFY
# IT UNDER THE TERMS OF THE GNU GENERAL PUBLIC LICENSE AS PUBLISHED BY
# THE FREE SOFTWARE FOUNDATION; EITHER VERSION 2 OF THE LICENSE, OR
# (AT YOUR OPTION) ANY LATER VERSION.
#
# THIS PROGRAM IS DISTRIBUTED IN THE HOPE THAT IT WILL BE USEFUL, BUT
# WITHOUT ANY WARRANTY; WITHOUT EVEN THE IMPLIED WARRANTY OF
# MERCHANTABILITY OR FITNESS FOR A PARTICULAR PURPOSE. SEE THE GNU
# GENERAL PUBLIC LICENSE FOR MORE DETAILS.
#
# YOU SHOULD HAVE RECEIVED A COPY OF THE GNU GENERAL PUBLIC LICENSE
# ALONG WITH THIS PROGRAM; IF NOT, WRITE TO EDF R&D CODE_ASTER,
#    1 AVENUE DU GENERAL DE GAULLE, 92141 CLAMART CEDEX, FRANCE.
# ======================================================================
# CAS_TEST__:SSNV153A
# ON TEST LE LISSAGE
# MODELISATION 2D DP ELEMENTS LINEAIRES
#
DEBUT(CODE=_F(NOM='SSNV153A',NIV_PUB_WEB='INTERNET'),DEBUG=_F(SDVERI='OUI'))

MA=LIRE_MAILLAGE(FORMAT='MED',)
MA=DEFI_GROUP( reuse=MA,MAILLAGE=MA,CREA_GROUP_NO=(
                       _F(  GROUP_MA = 'TIRE1',  ),
                       _F(  GROUP_MA = 'TIRE2',  ),
                       _F(  GROUP_MA = 'POULIE',  ),
                       _F(  GROUP_MA = 'SURFMAIT',  ),
                       _F(  GROUP_MA = 'SURFESCL', ),
                       _F(  GROUP_MA = 'CORDINF', ),
                       _F(  GROUP_MA = 'CASTR',))
                    )

#---------------------------------------------------
MO=AFFE_MODELE(
                MAILLAGE=MA,AFFE=(
                 _F( TOUT='OUI',
                     PHENOMENE='MECANIQUE',
                     MODELISATION='D_PLAN',),
                                )
                 )
#--------------------------------------------------
MAT2=DEFI_MATERIAU(
                            ELAS=_F(
                                  E = 147.6190E+05,
                                  NU = 0.4762,
                                 )
                          )

#
MAT1=DEFI_MATERIAU(
                            ELAS=_F(
                                  E = 147.6190E+05,
                                  NU = 0.4762,
                                 )
                          )

CHMAT=AFFE_MATERIAU(
                            MAILLAGE=MA,AFFE=(
                           _F(
                                 GROUP_MA = 'CORDE',
                                 MATER = MAT2,
                                ),
                           _F(
                                 GROUP_MA = 'POULINT',
                                 MATER = MAT1,
                                ),),
                           )
#--------------------------------------------------------
CHA1=AFFE_CHAR_MECA(
                     MODELE=MO,DDL_IMPO=(
                     _F(  NOEUD = 'N476',  DX = 0.0,),
                     _F(  GROUP_NO = 'TIRE1',  DY = -1.0,),
                     _F(  GROUP_NO = 'TIRE2',  DY = -1.0,),
                     _F(  GROUP_NO = 'CASTR', DX = 0.0,   DY =  0.0,))
                    )

CHA2 = DEFI_CONTACT(MODELE         = MO,
                    FORMULATION    = 'CONTINUE',
                    ALGO_RESO_CONT = 'NEWTON',
                    ALGO_RESO_GEOM = 'POINT_FIXE',
                    REAC_GEOM      = 'SANS',
                    LISSAGE        = 'OUI',
                    ZONE =(
                           _F(
                             GROUP_MA_MAIT = 'SURFMAIT',
                             GROUP_MA_ESCL = 'SURFESCL',
                             ALGO_CONT     = 'STANDARD',
                             COEF_CONT     = 10.,

                             ),
                          ),
                   );

#-----------------------------------------------------------
L_INST=DEFI_LIST_REEL(DEBUT=0.0,
                      INTERVALLE=_F(JUSQU_A=1., NOMBRE=1,)
                      )
FONC=DEFI_FONCTION(
                   NOM_PARA='INST',
                   VALE=(0., 0.0,
                         1., 1.0,)
                   )
#-----------------------------------------------
RESU=STAT_NON_LINE (
                   MODELE     = MO,
                   CHAM_MATER = CHMAT,
                   INCREMENT  =_F(
                               LIST_INST=L_INST,),
                   EXCIT      =(
                               _F(CHARGE=CHA1,
                                FONC_MULT=FONC,),
                               ),
                   CONTACT    = CHA2,
                   COMP_ELAS  =_F(
                                RELATION='ELAS'),
                   NEWTON     =_F(MATRICE='ELASTIQUE',
                                  REAC_ITER=1,),
                   CONVERGENCE=_F(
                                ARRET='OUI',
                                ITER_GLOB_MAXI=30,
                                RESI_GLOB_MAXI=1.E-6,
                                 ),
                   )


RESU=CALC_CHAMP( reuse=RESU,
                  RESULTAT=RESU,
                   CONTRAINTE=('SIGM_ELNO'),
                )
RESU=CALC_CHAMP( reuse=RESU,
                RESULTAT=RESU,
                CONTRAINTE='SIGM_NOEU',
              )

SIELNO=CREA_CHAMP(  OPERATION='EXTR',
                    TYPE_CHAM='ELNO_SIEF_R',
                    NOM_CHAM='SIGM_ELNO',
                    RESULTAT=RESU,
                    NUME_ORDRE=1
                       )


TEST_RESU(CHAM_ELEM=_F(NOEUD='N37',
                       CRITERE='RELATIF',
                       REFERENCE='ANALYTIQUE',
                       NOM_CMP='SIYY',
                       PRECISION=0.02,
                       MAILLE='M96',
                       CHAM_GD=SIELNO,
                       VALE_CALC=-6.02712145E+05,
                       VALE_REFE=-5.97000E5,),)

TEST_RESU(RESU=(_F(NUME_ORDRE=1,
                   REFERENCE='ANALYTIQUE',
                   RESULTAT=RESU,
                   NOM_CHAM='DEPL',
                   NOEUD='N450',
                   NOM_CMP='DX',
                   VALE_CALC=-5.64175109E-09,
                   VALE_REFE=0.0,
                   CRITERE='ABSOLU',
                   PRECISION=9.9999999999999995E-08,),
                _F(NUME_ORDRE=1,
                   REFERENCE='ANALYTIQUE',
                   RESULTAT=RESU,
                   NOM_CHAM='DEPL',
                   NOEUD='N37',
                   NOM_CMP='DX',
                   VALE_CALC= 3.04866205E-09,
                   VALE_REFE=0.0,
                   CRITERE='ABSOLU',
                   PRECISION=9.9999999999999995E-08,),
                _F(NUME_ORDRE=1,
                   REFERENCE='ANALYTIQUE',
                   RESULTAT=RESU,
                   NOM_CHAM='DEPL',
                   NOEUD='N476',
                   NOM_CMP='DX',
                   VALE_CALC= 7.22223729E-35,
                   VALE_REFE=0.0,
                   CRITERE='ABSOLU',
                   PRECISION=9.9999999999999995E-08,),
                ),
          )

#
FIN( )
#
