# TITRE MISE EN TENSION DE CABLES DE PRECONTRAINTES DANS UNE POUTRE 3D
# ======================================================================
# COPYRIGHT (C) 1991 - 2012  EDF R&D                  WWW.CODE-ASTER.ORG
# THIS PROGRAM IS FREE SOFTWARE; YOU CAN REDISTRIBUTE IT AND/OR MODIFY
# IT UNDER THE TERMS OF THE GNU GENERAL PUBLIC LICENSE AS PUBLISHED BY
# THE FREE SOFTWARE FOUNDATION; EITHER VERSION 2 OF THE LICENSE, OR
# (AT YOUR OPTION) ANY LATER VERSION.
#
# THIS PROGRAM IS DISTRIBUTED IN THE HOPE THAT IT WILL BE USEFUL, BUT
# WITHOUT ANY WARRANTY; WITHOUT EVEN THE IMPLIED WARRANTY OF
# MERCHANTABILITY OR FITNESS FOR A PARTICULAR PURPOSE. SEE THE GNU
# GENERAL PUBLIC LICENSE FOR MORE DETAILS.
#
# YOU SHOULD HAVE RECEIVED A COPY OF THE GNU GENERAL PUBLIC LICENSE
# ALONG WITH THIS PROGRAM; IF NOT, WRITE TO EDF R&D CODE_ASTER,
#    1 AVENUE DU GENERAL DE GAULLE, 92141 CLAMART CEDEX, FRANCE.
# ======================================================================
#---------------------------------------------------------------------

DEBUT(CODE=_F(NOM='SSNV164B', NIV_PUB_WEB='INTERNET'), DEBUG=_F(SDVERI='OUI'))

MAILLAGE=LIRE_MAILLAGE(FORMAT='MED',);

MAILLAGE=DEFI_GROUP(reuse =MAILLAGE,
              MAILLAGE=MAILLAGE,
              CREA_GROUP_NO=(_F(GROUP_MA='SU3',),
                             _F(GROUP_MA='PP',),
                             _F(GROUP_MA='CAB1',),
                             _F(GROUP_MA='CAB2',),
                             _F(GROUP_MA='CAB3',),
                             _F(GROUP_MA='CAB4',),
                             _F(GROUP_MA='CAB5',),
                             ),);
MO=AFFE_MODELE(MAILLAGE=MAILLAGE,
               AFFE=(
                       _F(GROUP_MA='VOLTOT',
                        PHENOMENE='MECANIQUE',
                        MODELISATION='3D',),
                       _F(GROUP_MA=('CAB1','CAB2','CAB3','CAB4','CAB5'),
                         PHENOMENE='MECANIQUE',
                         MODELISATION='BARRE',),),);

CE=AFFE_CARA_ELEM(MODELE=MO,
                  BARRE=_F(
                           GROUP_MA=('CAB1','CAB2','CAB3','CAB4','CAB5'),
                           SECTION='CERCLE',
                           CARA='R',
                           VALE=2.8209E-2,),);

MBETON=DEFI_MATERIAU(ELAS=_F(E=4.E10,
                             NU=0.20,
                             RHO=2500,),
                     BPEL_BETON=_F(),);

MCABLE=DEFI_MATERIAU(ELAS=_F(E=1.93000000000E11,
                             NU=0.3,
                             RHO=7850,),
                     BPEL_ACIER=_F(F_PRG=1.94000000000E11,
                                   FROT_COURB=0.0,
                                   FROT_LINE=1.5E-3,),
                     ECRO_LINE = _F(SY = 1.94E11,
                                    D_SIGM_EPSI=1000.,))

CMAT=AFFE_MATERIAU(MAILLAGE=MAILLAGE,
                   AFFE=(
                         _F(GROUP_MA='VOLTOT',
                            MATER=MBETON,),
                         _F(GROUP_MA=('CAB1','CAB2','CAB3','CAB4','CAB5'),
                            MATER=MCABLE,),),);

CLIM =AFFE_CHAR_MECA(MODELE=MO,
                    DDL_IMPO=(
                            _F(GROUP_NO='PP',
                               DX=0.0,DY=0.0,),
                            _F(GROUP_NO='PX',
                               DY=0.0,),
                            _F(GROUP_NO='PY',
                               DX=0.0,),
                            _F(GROUP_NO='SU3',
                               DZ=0.0,), ),
                   PESANTEUR=_F(GRAVITE=9.8100000000000005,
                                DIRECTION=(0.0,0.0,-1.0,),),
                   )

CAB_BP1=DEFI_CABLE_BP(MODELE=MO,
                      CHAM_MATER=CMAT,
                      CARA_ELEM=CE,
                      GROUP_MA_BETON='VOLTOT',
                      DEFI_CABLE=_F(GROUP_MA='CAB1',
                                    GROUP_NO_ANCRAGE=('PC1D','PC1F',),),
                      TYPE_ANCRAGE=('ACTIF','PASSIF',),
                      CONE=_F(RAYON=0.20,
                              LONGUEUR=1.5,
                              PRESENT=('NON','OUI',),),
                      TENSION_INIT=3.750000E6,
                      RECUL_ANCRAGE=0.001,
                      INFO=2,
                      );

CAB_BP2=DEFI_CABLE_BP(MODELE=MO,
                       CHAM_MATER=CMAT,
                       CARA_ELEM=CE,
                       GROUP_MA_BETON='VOLTOT',
                       DEFI_CABLE=_F(GROUP_MA='CAB2',
                                     GROUP_NO_ANCRAGE=('PC2D','PC2F',),),
                       TYPE_ANCRAGE=('ACTIF','PASSIF',),
                       TENSION_INIT=3.750000E6,
                       RECUL_ANCRAGE=0.001,);

CAB_BP3=DEFI_CABLE_BP(MODELE=MO,
                       CHAM_MATER=CMAT,
                       CARA_ELEM=CE,
                       GROUP_MA_BETON='VOLTOT',
                       DEFI_CABLE=_F(GROUP_MA='CAB3',
                                     GROUP_NO_ANCRAGE=('PC3D','PC3F',),),
                       TYPE_ANCRAGE=('ACTIF','PASSIF',),
                       TENSION_INIT=3.750000E6,
                       RECUL_ANCRAGE=0.001,);


CAB_BP4=DEFI_CABLE_BP(MODELE=MO,
                      CHAM_MATER=CMAT,
                      CARA_ELEM=CE,
                      GROUP_MA_BETON='VOLTOT',
                      DEFI_CABLE=_F(GROUP_MA='CAB4',
                                    GROUP_NO_ANCRAGE=('PC4D','PC4F',),),
                      TYPE_ANCRAGE=('ACTIF','PASSIF',),
                      TENSION_INIT=3.750000E6,
                      RECUL_ANCRAGE=0.001,);

CAB_BP5=DEFI_CABLE_BP(MODELE=MO,
                      CHAM_MATER=CMAT,
                      CARA_ELEM=CE,
                      GROUP_MA_BETON='VOLTOT',
                      DEFI_CABLE=_F(GROUP_MA='CAB5',
                                    GROUP_NO_ANCRAGE=('PC5D','PC5F',),),
                      TYPE_ANCRAGE=('ACTIF','ACTIF',),
                      TENSION_INIT=3.750000E6,
                      RECUL_ANCRAGE=0.001,
                      );

CMCAB1=AFFE_CHAR_MECA(MODELE=MO,
                  RELA_CINE_BP=_F(CABLE_BP=CAB_BP1,
                                   SIGM_BPEL='NON',
                                   RELA_CINE='OUI',),)
CMCAB2=AFFE_CHAR_MECA(MODELE=MO,
                  RELA_CINE_BP=_F(CABLE_BP=CAB_BP2,
                                   SIGM_BPEL='NON',
                                   RELA_CINE='OUI',),)
CMCAB3=AFFE_CHAR_MECA(MODELE=MO,
                  RELA_CINE_BP=_F(CABLE_BP=CAB_BP3,
                                    SIGM_BPEL='NON',
                                    RELA_CINE='OUI',),)
CMCAB4=AFFE_CHAR_MECA(MODELE=MO,
                  RELA_CINE_BP=_F(CABLE_BP=CAB_BP4,
                                   SIGM_BPEL='NON',
                                   RELA_CINE='OUI',),)
CMCAB5=AFFE_CHAR_MECA(MODELE=MO,
                  RELA_CINE_BP=_F(CABLE_BP=CAB_BP5,
                                   SIGM_BPEL='NON',
                                   RELA_CINE='OUI',),);


LINST=DEFI_LIST_REEL(VALE=(0.0,150.,300.,450.,600.),);

# ETAPE 1 : EFFET DE LA PESANTEUR

RES1 = STAT_NON_LINE(MODELE=MO,
                     CHAM_MATER=CMAT,
                     CARA_ELEM=CE,
                     COMP_INCR=(_F( RELATION = 'ELAS',),
                                _F(RELATION = 'SANS',
                                   GROUP_MA= ('CABLE'),),),
                     EXCIT   =(_F(CHARGE = CLIM,),
                               _F(CHARGE = CMCAB1),
                               _F(CHARGE = CMCAB2),
                               _F(CHARGE = CMCAB3),
                               _F(CHARGE = CMCAB4),
                               _F(CHARGE = CMCAB5),),
                     INCREMENT=_F(LIST_INST = LINST,
                                  INST_FIN = 150.),)

# chargement 2 : cables 1 et 2
#--------------------------------------------------------
RES1 =  CALC_PRECONT( reuse=RES1,
                            ETAT_INIT=_F(EVOL_NOLI=RES1),
                            MODELE=MO,
                            CHAM_MATER=CMAT,
                            CARA_ELEM=CE,
                            COMP_INCR=(_F( RELATION = 'ELAS',
                                           GROUP_MA='VOLTOT',),
                                       _F( RELATION = 'VMIS_ISOT_LINE',
                                           GROUP_MA = 'CABLE'),),
                            EXCIT   =(_F(CHARGE = CLIM,),),
                            CABLE_BP   =( CAB_BP1, CAB_BP2 ),
                            CABLE_BP_INACTIF = ( CAB_BP3, CAB_BP4, CAB_BP5 ,),
                            INCREMENT=_F(LIST_INST = LINST,
                                           INST_FIN  = 300., ),)

# chargement 3 : cables 3 et 4
#--------------------------------------------------------
RES1 =  CALC_PRECONT( reuse=RES1,
                            ETAT_INIT=_F(EVOL_NOLI=RES1),
                            MODELE=MO,
                            CHAM_MATER=CMAT,
                            CARA_ELEM=CE,
                            COMP_INCR=(_F( RELATION = 'ELAS',
                                           GROUP_MA='VOLTOT',),
                                       _F( RELATION = 'VMIS_ISOT_LINE',
                                           GROUP_MA = 'CABLE'),),
                            EXCIT   =(_F(CHARGE = CLIM,),
                                       _F(CHARGE = CMCAB1,),
                                       _F(CHARGE = CMCAB2,),),
                            CABLE_BP   =( CAB_BP3 , CAB_BP4 ),
                            CABLE_BP_INACTIF = ( CAB_BP5 ,),
                            INCREMENT=_F(LIST_INST = LINST,
                                         INST_FIN  = 450.,  ),)

# chargement 4 : cable 5
#-----------------------------------------------------------
RES1 =  CALC_PRECONT(  reuse=RES1,
                             ETAT_INIT=_F(EVOL_NOLI=RES1),
                             MODELE=MO,
                             CHAM_MATER=CMAT,
                             CARA_ELEM=CE,
                             COMP_INCR=(_F( RELATION = 'ELAS',
                                           GROUP_MA='VOLTOT',),
                                       _F( RELATION = 'VMIS_ISOT_LINE',
                                           GROUP_MA = 'CABLE'),),
                             EXCIT   =(_F(CHARGE = CLIM,),
                                       _F(CHARGE = CMCAB1,),
                                       _F(CHARGE = CMCAB2,),
                                       _F(CHARGE = CMCAB3,),
                                       _F(CHARGE = CMCAB4,),),
                             CABLE_BP   =( CAB_BP5 ,),
                             INCREMENT=_F(LIST_INST = LINST,
                                          INST_FIN = 600.,),)


#  posttraitement
#--------------------------------------

RES1=CALC_CHAMP(reuse=RES1,CRITERES=('SIEQ_ELNO'),CONTRAINTE=('SIEF_ELNO'),RESULTAT=RES1)


#  cable 1 - inst 300s
TEST_RESU(RESU=(_F(INST=300.0,
                   REFERENCE='SOURCE_EXTERNE',
                   RESULTAT=RES1,
                   NOM_CHAM='SIEF_ELNO',
                   NOEUD='N1',
                   NOM_CMP='N',
                   VALE_CALC= 3.64939314E+06,
                   VALE_REFE=3.648000E6,
                   CRITERE='RELATIF',
                   PRECISION=1.E-3,
                   MAILLE='M5655',),
                _F(INST=300.0,
                   REFERENCE='SOURCE_EXTERNE',
                   RESULTAT=RES1,
                   NOM_CHAM='SIEF_ELNO',
                   NOEUD='N6',
                   NOM_CMP='N',
                   VALE_CALC= 3.67686649E+06,
                   VALE_REFE=3.675000E6,
                   CRITERE='RELATIF',
                   PRECISION=1.E-3,
                   MAILLE='M5660',),
                _F(INST=300.0,
                   REFERENCE='SOURCE_EXTERNE',
                   RESULTAT=RES1,
                   NOM_CHAM='SIEF_ELNO',
                   NOEUD='N11',
                   NOM_CMP='N',
                   VALE_CALC= 3.69519477E+06,
                   VALE_REFE=3.693000E6,
                   CRITERE='RELATIF',
                   PRECISION=1.E-3,
                   MAILLE='M5664',),
                _F(INST=300.0,
                   REFERENCE='SOURCE_EXTERNE',
                   RESULTAT=RES1,
                   NOM_CHAM='SIEF_ELNO',
                   NOEUD='N16',
                   NOM_CMP='N',
                   VALE_CALC= 3.66381927E+06,
                   VALE_REFE=3.667000E6,
                   CRITERE='RELATIF',
                   PRECISION=1.E-3,
                   MAILLE='M5670',),
                _F(INST=300.0,
                   REFERENCE='SOURCE_EXTERNE',
                   RESULTAT=RES1,
                   NOM_CHAM='SIEF_ELNO',
                   NOEUD='N101',
                   NOM_CMP='N',
                   VALE_CALC= 3.64190218E+06,
                   VALE_REFE=3.640000E6,
                   CRITERE='RELATIF',
                   PRECISION=1.E-3,
                   MAILLE='M5674',),
                ),
          )

#  cable 1 - inst 450s
TEST_RESU(RESU=(_F(INST=450.0,
                   REFERENCE='SOURCE_EXTERNE',
                   RESULTAT=RES1,
                   NOM_CHAM='SIEF_ELNO',
                   NOEUD='N1',
                   NOM_CMP='N',
                   VALE_CALC= 3.56343017E+06,
                   VALE_REFE=3.561000E6,
                   CRITERE='RELATIF',
                   PRECISION=1.E-2,
                   MAILLE='M5655',),
                _F(INST=450.0,
                   REFERENCE='SOURCE_EXTERNE',
                   RESULTAT=RES1,
                   NOM_CHAM='SIEF_ELNO',
                   NOEUD='N6',
                   NOM_CMP='N',
                   VALE_CALC= 3.59025541E+06,
                   VALE_REFE=3.588000E6,
                   CRITERE='RELATIF',
                   PRECISION=1.E-2,
                   MAILLE='M5660',),
                _F(INST=450.0,
                   REFERENCE='SOURCE_EXTERNE',
                   RESULTAT=RES1,
                   NOM_CHAM='SIEF_ELNO',
                   NOEUD='N11',
                   NOM_CMP='N',
                   VALE_CALC= 3.61319834E+06,
                   VALE_REFE=3.628000E6,
                   CRITERE='RELATIF',
                   PRECISION=1.E-2,
                   MAILLE='M5664',),
                _F(INST=450.0,
                   REFERENCE='SOURCE_EXTERNE',
                   RESULTAT=RES1,
                   NOM_CHAM='SIEF_ELNO',
                   NOEUD='N16',
                   NOM_CMP='N',
                   VALE_CALC= 3.64171846E+06,
                   VALE_REFE=3.645000E6,
                   CRITERE='RELATIF',
                   PRECISION=1.E-2,
                   MAILLE='M5670',),
                _F(INST=450.0,
                   REFERENCE='SOURCE_EXTERNE',
                   RESULTAT=RES1,
                   NOM_CHAM='SIEF_ELNO',
                   NOEUD='N101',
                   NOM_CMP='N',
                   VALE_CALC= 3.64190218E+06,
                   VALE_REFE=3.629000E6,
                   CRITERE='RELATIF',
                   PRECISION=1.E-2,
                   MAILLE='M5674',),
                ),
          )

#  cable 1 - inst 600s
TEST_RESU(RESU=(_F(INST=600.0,
                   REFERENCE='SOURCE_EXTERNE',
                   RESULTAT=RES1,
                   NOM_CHAM='SIEF_ELNO',
                   NOEUD='N1',
                   NOM_CMP='N',
                   VALE_CALC= 3.52144457E+06,
                   VALE_REFE=3.519000E6,
                   CRITERE='RELATIF',
                   PRECISION=1.E-2,
                   MAILLE='M5655',),
                _F(INST=600.0,
                   REFERENCE='SOURCE_EXTERNE',
                   RESULTAT=RES1,
                   NOM_CHAM='SIEF_ELNO',
                   NOEUD='N6',
                   NOM_CMP='N',
                   VALE_CALC= 3.54794644E+06,
                   VALE_REFE=3.546000E6,
                   CRITERE='RELATIF',
                   PRECISION=1.E-2,
                   MAILLE='M5660',),
                _F(INST=600.0,
                   REFERENCE='SOURCE_EXTERNE',
                   RESULTAT=RES1,
                   NOM_CHAM='SIEF_ELNO',
                   NOEUD='N11',
                   NOM_CMP='N',
                   VALE_CALC= 3.57303997E+06,
                   VALE_REFE=3.597000E6,
                   CRITERE='RELATIF',
                   PRECISION=1.E-2,
                   MAILLE='M5664',),
                _F(INST=600.0,
                   REFERENCE='SOURCE_EXTERNE',
                   RESULTAT=RES1,
                   NOM_CHAM='SIEF_ELNO',
                   NOEUD='N16',
                   NOM_CMP='N',
                   VALE_CALC= 3.63068199E+06,
                   VALE_REFE=3.635000E6,
                   CRITERE='RELATIF',
                   PRECISION=1.E-2,
                   MAILLE='M5670',),
                _F(INST=600.0,
                   REFERENCE='SOURCE_EXTERNE',
                   RESULTAT=RES1,
                   NOM_CHAM='SIEF_ELNO',
                   NOEUD='N101',
                   NOM_CMP='N',
                   VALE_CALC= 3.64190218E+06,
                   VALE_REFE=3.614000E6,
                   CRITERE='RELATIF',
                   PRECISION=1.E-2,
                   MAILLE='M5674',),
                ),
          )

#  cable 3 - inst 450s
TEST_RESU(RESU=(_F(INST=450.0,
                   REFERENCE='SOURCE_EXTERNE',
                   RESULTAT=RES1,
                   NOM_CHAM='SIEF_ELNO',
                   NOEUD='N41',
                   NOM_CMP='N',
                   VALE_CALC= 3.64939314E+06,
                   VALE_REFE=3.647000E6,
                   CRITERE='RELATIF',
                   PRECISION=1.E-3,
                   MAILLE='M5695',),
                _F(INST=450.0,
                   REFERENCE='SOURCE_EXTERNE',
                   RESULTAT=RES1,
                   NOM_CHAM='SIEF_ELNO',
                   NOEUD='N46',
                   NOM_CMP='N',
                   VALE_CALC= 3.67686649E+06,
                   VALE_REFE=3.675000E6,
                   CRITERE='RELATIF',
                   PRECISION=1.E-3,
                   MAILLE='M5700',),
                _F(INST=450.0,
                   REFERENCE='SOURCE_EXTERNE',
                   RESULTAT=RES1,
                   NOM_CHAM='SIEF_ELNO',
                   NOEUD='N51',
                   NOM_CMP='N',
                   VALE_CALC= 3.69140122E+06,
                   VALE_REFE=3.695000E6,
                   CRITERE='RELATIF',
                   PRECISION=1.E-3,
                   MAILLE='M5705',),
                _F(INST=450.0,
                   REFERENCE='SOURCE_EXTERNE',
                   RESULTAT=RES1,
                   NOM_CHAM='SIEF_ELNO',
                   NOEUD='N56',
                   NOM_CMP='N',
                   VALE_CALC= 3.66381927E+06,
                   VALE_REFE=3.667000E6,
                   CRITERE='RELATIF',
                   PRECISION=1.E-3,
                   MAILLE='M5710',),
                _F(INST=450.0,
                   REFERENCE='SOURCE_EXTERNE',
                   RESULTAT=RES1,
                   NOM_CHAM='SIEF_ELNO',
                   NOEUD='N103',
                   NOM_CMP='N',
                   VALE_CALC= 3.64190218E+06,
                   VALE_REFE=3.640000E6,
                   CRITERE='RELATIF',
                   PRECISION=1.E-3,
                   MAILLE='M5714',),
                ),
          )

#  cable 3 - inst 600s
TEST_RESU(RESU=(_F(INST=600.0,
                   REFERENCE='SOURCE_EXTERNE',
                   RESULTAT=RES1,
                   NOM_CHAM='SIEF_ELNO',
                   NOEUD='N41',
                   NOM_CMP='N',
                   VALE_CALC= 3.60752696E+06,
                   VALE_REFE=3.605000E6,
                   CRITERE='RELATIF',
                   PRECISION=1.E-2,
                   MAILLE='M5695',),
                _F(INST=600.0,
                   REFERENCE='SOURCE_EXTERNE',
                   RESULTAT=RES1,
                   NOM_CHAM='SIEF_ELNO',
                   NOEUD='N46',
                   NOM_CMP='N',
                   VALE_CALC= 3.63455786E+06,
                   VALE_REFE=3.632000E6,
                   CRITERE='RELATIF',
                   PRECISION=1.E-2,
                   MAILLE='M5700',),
                _F(INST=600.0,
                   REFERENCE='SOURCE_EXTERNE',
                   RESULTAT=RES1,
                   NOM_CHAM='SIEF_ELNO',
                   NOEUD='N51',
                   NOM_CMP='N',
                   VALE_CALC= 3.67195443E+06,
                   VALE_REFE=3.662000E6,
                   CRITERE='RELATIF',
                   PRECISION=1.E-2,
                   MAILLE='M5705',),
                _F(INST=600.0,
                   REFERENCE='SOURCE_EXTERNE',
                   RESULTAT=RES1,
                   NOM_CHAM='SIEF_ELNO',
                   NOEUD='N56',
                   NOM_CMP='N',
                   VALE_CALC= 3.65288671E+06,
                   VALE_REFE=3.655000E6,
                   CRITERE='RELATIF',
                   PRECISION=1.E-2,
                   MAILLE='M5710',),
                _F(INST=600.0,
                   REFERENCE='SOURCE_EXTERNE',
                   RESULTAT=RES1,
                   NOM_CHAM='SIEF_ELNO',
                   NOEUD='N103',
                   NOM_CMP='N',
                   VALE_CALC= 3.62723348E+06,
                   VALE_REFE=3.625000E6,
                   CRITERE='RELATIF',
                   PRECISION=1.E-2,
                   MAILLE='M5714',),
                ),
          )

#  cable 5 - inst 600s
TEST_RESU(RESU=(_F(INST=600.0,
                   REFERENCE='SOURCE_EXTERNE',
                   RESULTAT=RES1,
                   NOM_CHAM='SIEF_ELNO',
                   NOEUD='N81',
                   NOM_CMP='N',
                   VALE_CALC= 3.64939314E+06,
                   VALE_REFE=3.647000E6,
                   CRITERE='RELATIF',
                   PRECISION=1.E-3,
                   MAILLE='M5735',),
                _F(INST=600.0,
                   REFERENCE='SOURCE_EXTERNE',
                   RESULTAT=RES1,
                   NOM_CHAM='SIEF_ELNO',
                   NOEUD='N86',
                   NOM_CMP='N',
                   VALE_CALC= 3.67686649E+06,
                   VALE_REFE=3.674000E6,
                   CRITERE='RELATIF',
                   PRECISION=1.E-3,
                   MAILLE='M5740',),
                _F(INST=600.0,
                   REFERENCE='SOURCE_EXTERNE',
                   RESULTAT=RES1,
                   NOM_CHAM='SIEF_ELNO',
                   NOEUD='N91',
                   NOM_CMP='N',
                   VALE_CALC= 3.69519477E+06,
                   VALE_REFE=3.695000E6,
                   CRITERE='RELATIF',
                   PRECISION=1.E-3,
                   MAILLE='M5745',),
                _F(INST=600.0,
                   REFERENCE='SOURCE_EXTERNE',
                   RESULTAT=RES1,
                   NOM_CHAM='SIEF_ELNO',
                   NOEUD='N96',
                   NOM_CMP='N',
                   VALE_CALC= 3.67135532E+06,
                   VALE_REFE=3.674000E6,
                   CRITERE='RELATIF',
                   PRECISION=1.E-3,
                   MAILLE='M5750',),
                _F(INST=600.0,
                   REFERENCE='SOURCE_EXTERNE',
                   RESULTAT=RES1,
                   NOM_CHAM='SIEF_ELNO',
                   NOEUD='N105',
                   NOM_CMP='N',
                   VALE_CALC= 3.64939314E+06,
                   VALE_REFE=3.647000E6,
                   CRITERE='RELATIF',
                   PRECISION=1.E-3,
                   MAILLE='M5754',),
                ),
          )

FIN();
