 TITRE
CODE_ASTER - 11.01    - VERSION DE DEVELOPPEMENT FIGEE    - FRONTAL1         - L
 FINSF
 %
 COOR_3D
 NO1       0.00000000000000E+00  1.00000000000000E+00  0.00000000000000E+00
 NO2       1.00000000000000E+00  1.00000000000000E+00  0.00000000000000E+00
 NO3       0.00000000000000E+00  0.00000000000000E+00  0.00000000000000E+00
 NO4       1.00000000000000E+00  0.00000000000000E+00  0.00000000000000E+00
 NO5       0.00000000000000E+00  1.00000000000000E+00  1.00000000000000E+00
 NO6       1.00000000000000E+00  1.00000000000000E+00  1.00000000000000E+00
 NO7       0.00000000000000E+00  0.00000000000000E+00  1.00000000000000E+00
 NO8       1.00000000000000E+00  0.00000000000000E+00  1.00000000000000E+00
 FINSF
 %
 HEXA8   
 MA2      NO2      NO4      NO8      NO6      NO1      NO3      NO7     
          NO5     
 FINSF
 %
 GROUP_NO
 CURVE1  
 NO2      NO1     
 FINSF
 %
 GROUP_NO
 CURVE2  
 NO2      NO4     
 FINSF
 %
 GROUP_NO
 M_AREA1 
 NO2      NO1      NO4      NO3     
 FINSF
 %
 GROUP_NO
 FACE1YZ 
 NO2      NO4      NO6      NO8     
 FINSF
 %
 GROUP_NO
 FACE1XZ 
 NO2      NO1      NO6      NO5     
 FINSF
 %
 GROUP_NO
 CURVE4  
 NO1      NO3     
 FINSF
 %
 GROUP_NO
 FACEYZ  
 NO1      NO3      NO5      NO7     
 FINSF
 %
 GROUP_NO
 CURVE3  
 NO4      NO3     
 FINSF
 %
 GROUP_NO
 FACEXZ  
 NO4      NO3      NO8      NO7     
 FINSF
 %
 FIN
