# ======================================================================
# COPYRIGHT (C) 1991 - 2016  EDF R&D                  WWW.CODE-ASTER.ORG
# THIS PROGRAM IS FREE SOFTWARE; YOU CAN REDISTRIBUTE IT AND/OR MODIFY
# IT UNDER THE TERMS OF THE GNU GENERAL PUBLIC LICENSE AS PUBLISHED BY
# THE FREE SOFTWARE FOUNDATION; EITHER VERSION 2 OF THE LICENSE, OR
# (AT YOUR OPTION) ANY LATER VERSION.
#
# THIS PROGRAM IS DISTRIBUTED IN THE HOPE THAT IT WILL BE USEFUL, BUT
# WITHOUT ANY WARRANTY; WITHOUT EVEN THE IMPLIED WARRANTY OF
# MERCHANTABILITY OR FITNESS FOR A PARTICULAR PURPOSE. SEE THE GNU
# GENERAL PUBLIC LICENSE FOR MORE DETAILS.
#
# YOU SHOULD HAVE RECEIVED A COPY OF THE GNU GENERAL PUBLIC LICENSE
# ALONG WITH THIS PROGRAM; IF NOT, WRITE TO EDF R&D CODE_ASTER,
#    1 AVENUE DU GENERAL DE GAULLE, 92141 CLAMART CEDEX, FRANCE.
# ======================================================================

# CAS TEST  SSNV505K
# MODELE
# MAILLAGE : ELEMENT 3D HEXA A 20 NOEUDS
# UNITES   : NEWTON , MILLIMETRE , SECONDE (N,MM,S)
#
#


DEBUT(CODE=_F(NIV_PUB_WEB='INTERNET'));

# ---------------------  MAILLAGE ----------------
MAILL1=LIRE_MAILLAGE(FORMAT='MED',
);

MAILL1=DEFI_GROUP(reuse =MAILL1,
                  MAILLAGE=MAILL1,
                  CREA_GROUP_NO=_F(TOUT_GROUP_MA='OUI'),);

# -------------------- MODELE ------------------
MODE=AFFE_MODELE(MAILLAGE=MAILL1,
                 
                 AFFE=_F(GROUP_MA='STRUCT',
                         PHENOMENE='MECANIQUE',
                         MODELISATION='3D',),);

MAILL1=MODI_MAILLAGE(reuse =MAILL1,
                   MAILLAGE=MAILL1,
                   ORIE_PEAU_3D=_F(GROUP_MA=('SMAI','SESC'),),
                   );

# ------------- DEFINITON DU MATERIAU -----------
MPOUTRE=DEFI_MATERIAU(ELAS=_F(E=6.8948E3,
                              NU=0.3333,),);

CM=AFFE_MATERIAU(MAILLAGE=MAILL1,
                 AFFE=_F(GROUP_MA='STRUCT',
                         MATER=MPOUTRE,),);

# ---------- CONDITIONS AUX LIMITES --------------
COND_LIM=AFFE_CHAR_MECA(MODELE=MODE,
                        DDL_IMPO=(_F(GROUP_NO='SA',
                                     DX=0.0,DY=0.0,DZ=0.0,),
                                  _F(GROUP_NO='SB',
                                     DX=0.0,DY=0.0,DZ=0.0,),
                                  _F(GROUP_NO='STRUCT',
                                     DZ=0.0,),
                                  ),);

CH1=AFFE_CHAR_MECA(MODELE=MODE,
                   DDL_IMPO=(_F(GROUP_NO=('LCC1'),
                                DY=-790.,),
                             ),);

CH2  = DEFI_CONTACT(MODELE         = MODE,
                    FORMULATION    = 'CONTINUE',
                    ALGO_RESO_CONT = 'POINT_FIXE',
                    ALGO_RESO_GEOM = 'POINT_FIXE',
                    REAC_GEOM      = 'CONTROLE',
                    NB_ITER_GEOM   = 3,
                    ZONE =(
                           _F(
                              GROUP_MA_MAIT='SMAI',
                              GROUP_MA_ESCL='SEG3_ESCL',
                             ),
                          ),
                   );


#~ CHREF  = DEFI_CONTACT(MODELE         = MODE,
                    #~ FORMULATION    = 'CONTINUE',
                    #~ ALGO_RESO_CONT = 'POINT_FIXE',
                    #~ ALGO_RESO_GEOM = 'POINT_FIXE',
                    #~ REAC_GEOM      = 'CONTROLE',
                    #~ NB_ITER_GEOM   = 3,
                    #~ ZONE =(
                           #~ _F(
                              #~ GROUP_MA_MAIT='SMAI',
                              #~ GROUP_MA_ESCL='SESC',
                             #~ ),
                          #~ ),
                   #~ );


RAMPE=DEFI_FONCTION(NOM_PARA='INST',
                    VALE=(0.0,0.0,1.0,1.0),
                    PROL_DROITE='LINEAIRE',
                    PROL_GAUCHE='LINEAIRE',);

L_INST=DEFI_LIST_REEL(DEBUT=0.0,
                      INTERVALLE=(_F(JUSQU_A=1.,
                                     NOMBRE=50,),),);

L_ARCH=DEFI_LIST_REEL(DEBUT=0.0,
                      INTERVALLE=(_F(JUSQU_A=1.,
                                     NOMBRE=25,),),);


#~ UREF=STAT_NON_LINE(MODELE=MODE,
                #~ CHAM_MATER=CM,
                #~ EXCIT=(_F(CHARGE=COND_LIM,),
                       #~ _F(CHARGE=CH1,
                          #~ FONC_MULT=RAMPE,),
                       #~ ),
                #~ CONTACT  = CHREF,
                #~ COMPORTEMENT=_F(RELATION='ELAS',
                             #~ DEFORMATION='GROT_GDEP',
                             #~ GROUP_MA='STRUCT',),
                #~ INCREMENT=_F(LIST_INST=L_INST,
                             #~ INST_FIN=1.,
                             #~ ),
                #~ NEWTON=_F(REAC_ITER=1,
                          #~ ),
                #~ CONVERGENCE=_F(ITER_GLOB_MAXI=20,),
                #~ ARCHIVAGE=_F(LIST_INST=L_ARCH),
                #~ INFO=1,);
#~ 
#~ UREF=CALC_CHAMP(reuse =UREF,
          #~ RESULTAT=UREF,
          #~ FORCE='FORC_NODA',
          #~ );




U=STAT_NON_LINE(MODELE=MODE,
                CHAM_MATER=CM,
                EXCIT=(_F(CHARGE=COND_LIM,),
                       _F(CHARGE=CH1,
                          FONC_MULT=RAMPE,),
                       ),
                CONTACT  = CH2,
                COMPORTEMENT=_F(RELATION='ELAS',
                             DEFORMATION='GROT_GDEP',
                             GROUP_MA='STRUCT',),
                INCREMENT=_F(LIST_INST=L_INST,
                             INST_FIN=1.,
                             ),
                NEWTON=_F(REAC_ITER=1,
                          ),
                CONVERGENCE=_F(ITER_GLOB_MAXI=20,),
                ARCHIVAGE=_F(LIST_INST=L_ARCH),
                INFO=1,);

U=CALC_CHAMP(reuse =U,
          RESULTAT=U,
          FORCE='FORC_NODA',


          );


#~ TABR_REF=POST_RELEVE_T(ACTION=_F(INTITULE='REAC',
                                 #~ GROUP_NO=('SA','SB'),
                                 #~ RESULTAT=UREF,
                                 #~ NOM_CHAM='FORC_NODA',
                                 #~ RESULTANTE='DY',
                                 #~ OPERATION='EXTRACTION',),);
#~ TABD_REF=POST_RELEVE_T(ACTION=_F(INTITULE='DEPL',
                                 #~ GROUP_NO='A1',
                                 #~ RESULTAT=UREF,
                                 #~ NOM_CHAM='DEPL',
                                 #~ NOM_CMP='DY',
                                 #~ OPERATION='EXTRACTION',),);
#~ 
#~ TEST_TABLE(
           #~ VALE_CALC=348.708752921,
           #~ NOM_PARA='DY',
           #~ TABLE=TABR_REF,
           #~ FILTRE=_F(NOM_PARA='INST',
                     #~ VALE=0.2,),
           #~ )
#~ 
#~ TEST_TABLE(
           #~ VALE_CALC=1330.02714552,
           #~ NOM_PARA='DY',
           #~ TABLE=TABR_REF,
           #~ FILTRE=_F(NOM_PARA='INST',
                     #~ VALE=0.4,),
           #~ )
#~ 
#~ TEST_TABLE(VALE_CALC=2604.89459614,
           #~ NOM_PARA='DY',
           #~ TABLE=TABR_REF,
           #~ FILTRE=_F(NOM_PARA='INST',
                     #~ VALE=0.6,),
           #~ )
#~ 
#~ TEST_TABLE(VALE_CALC=2191.78984705,
           #~ NOM_PARA='DY',
           #~ TABLE=TABR_REF,
           #~ FILTRE=_F(NOM_PARA='INST',
                     #~ VALE=0.8,),
           #~ )
#~ 
#~ TEST_TABLE(VALE_CALC=2468.55600727,
           #~ NOM_PARA='DY',
           #~ TABLE=TABR_REF,
           #~ FILTRE=_F(NOM_PARA='INST',
                     #~ VALE=1.0,),
           #~ )



TAB_REAC=POST_RELEVE_T(ACTION=_F(INTITULE='REAC',
                                 GROUP_NO=('SA','SB'),
                                 RESULTAT=U,
                                 NOM_CHAM='FORC_NODA',
                                 RESULTANTE='DY',
                                 OPERATION='EXTRACTION',),);
TAB_DEPL=POST_RELEVE_T(ACTION=_F(INTITULE='DEPL',
                                 GROUP_NO='A1',
                                 RESULTAT=U,
                                 NOM_CHAM='DEPL',
                                 NOM_CMP='DY',
                                 OPERATION='EXTRACTION',),);

TEST_TABLE(
           VALE_CALC=348.708752921,
           VALE_REFE=348.708752921,
           REFERENCE='AUTRE_ASTER',
           NOM_PARA='DY',
           TABLE=TAB_REAC,
           FILTRE=_F(NOM_PARA='INST',
                     VALE=0.2,),
           )

TEST_TABLE(
           VALE_CALC=1330.02714552,
           VALE_REFE=1330.02714552,
           REFERENCE='AUTRE_ASTER',
           NOM_PARA='DY',
           TABLE=TAB_REAC,
           FILTRE=_F(NOM_PARA='INST',
                     VALE=0.4,),
           )

TEST_TABLE(VALE_CALC=2604.89459614,
           VALE_REFE=2604.89459614,
           REFERENCE='AUTRE_ASTER',
           NOM_PARA='DY',
           TABLE=TAB_REAC,
           FILTRE=_F(NOM_PARA='INST',
                     VALE=0.6,),
           )

TEST_TABLE(VALE_CALC=2191.78984705,
           VALE_REFE=2191.78984705,
           REFERENCE='AUTRE_ASTER',
           NOM_PARA='DY',
           TABLE=TAB_REAC,
           FILTRE=_F(NOM_PARA='INST',
                     VALE=0.8,),
           )

TEST_TABLE(VALE_CALC=2396.8767377,
           VALE_REFE=2468.55600727,
           REFERENCE='AUTRE_ASTER',
           PRECISION = 3E-2,
           NOM_PARA='DY',
           TABLE=TAB_REAC,
           FILTRE=_F(NOM_PARA='INST',
                     VALE=1.0,),
           )

FIN();
