# MODIF  DATE 10/07/2006   AUTEUR LEBOUVIE F.LEBOUVIER 
# TITRE CYLINDRE DANS UN ALESAGE AVEC CONTACT ET FROTTEMENT
#            CONFIGURATION MANAGEMENT OF EDF VERSION
# ======================================================================
# COPYRIGHT (C) 1991 - 2005  EDF R&D                  WWW.CODE-ASTER.ORG
# THIS PROGRAM IS FREE SOFTWARE; YOU CAN REDISTRIBUTE IT AND/OR MODIFY  
# IT UNDER THE TERMS OF THE GNU GENERAL PUBLIC LICENSE AS PUBLISHED BY  
# THE FREE SOFTWARE FOUNDATION; EITHER VERSION 2 OF THE LICENSE, OR     
# (AT YOUR OPTION) ANY LATER VERSION.                                                    
#                                                                       
# THIS PROGRAM IS DISTRIBUTED IN THE HOPE THAT IT WILL BE USEFUL, BUT   
# WITHOUT ANY WARRANTY; WITHOUT EVEN THE IMPLIED WARRANTY OF            
# MERCHANTABILITY OR FITNESS FOR A PARTICULAR PURPOSE. SEE THE GNU      
# GENERAL PUBLIC LICENSE FOR MORE DETAILS.                              
#                                                                       
# YOU SHOULD HAVE RECEIVED A COPY OF THE GNU GENERAL PUBLIC LICENSE     
# ALONG WITH THIS PROGRAM; IF NOT, WRITE TO EDF R&D CODE_ASTER,         
#    1 AVENUE DU GENERAL DE GAULLE, 92141 CLAMART CEDEX, FRANCE.        
# ======================================================================
#       CAS_TEST SSNV127: 2D (Q8), METHODE CONTINUE

DEBUT(CODE=_F( NOM = 'SSNV127H', NIV_PUB_WEB='INTERNET'));

#PRE_GIBI();

#_____________________________________________________________________ 
#                                                       
#                    LECTURE DE SSNV127H.MGIB           
#_____________________________________________________________________ 
#                                                       

SSNV127H=LIRE_MAILLAGE();

SSNV127H=DEFI_GROUP(reuse =SSNV127H,
                    MAILLAGE=SSNV127H,
                    CREA_GROUP_NO=(_F(GROUP_MA='CC4',),
                                   _F(GROUP_MA='AD1',),
                                   _F(GROUP_MA='AD2',),
                                   _F(GROUP_MA='AD3',),
                                   _F(GROUP_MA='BD3',),
                                   _F(GROUP_MA='AD4',),
                                   _F(GROUP_MA='BD4',),
                                   _F(GROUP_MA='BCC2',
                                      OPTION='NOEUD_ORDO',
                                      NOM='RELEVE',
                                      GROUP_NO_ORIG='A1',
                                      GROUP_NO_EXTR='B2',),),);
#_____________________________________________________________________ 
#
#                    DEFINITION DU MODELE               
#_____________________________________________________________________ 
#

MO=AFFE_MODELE(MAILLAGE=SSNV127H,
               AFFE=_F(TOUT='OUI',
                       PHENOMENE='MECANIQUE',
                       MODELISATION='C_PLAN',),);

SSNV127H=MODI_MAILLAGE(reuse =SSNV127H,
                       MAILLAGE=SSNV127H,
                       ORIE_PEAU_2D=_F(GROUP_MA='BCC1',),
                      );

SSNV127H=MODI_MAILLAGE(reuse =SSNV127H,
                       MAILLAGE=SSNV127H,
                       ORIE_PEAU_2D=_F(GROUP_MA='BCC2',),
                      );
#_____________________________________________________________________ 
#                                                       
#                    DEFINITION DES MATERIAUX           
#_____________________________________________________________________ 
#                                                       

MAT1=DEFI_MATERIAU(ELAS=_F(E=2.10000000000E11,
                           NU=0.29999999999999999,),);

CHMAT=AFFE_MATERIAU(MAILLAGE=SSNV127H,
                    AFFE=_F(GROUP_MA='SURFF',
                            MATER=MAT1,),);
#_____________________________________________________________________ 
#                                                       
#              AFFECTATION DES CONDITIONS AUX LIMITES            
#                       ET DU CHARGEMENT                
#_____________________________________________________________________ 
#                                                       

CHA1=AFFE_CHAR_MECA(MODELE=MO,
                    DDL_IMPO=(_F(GROUP_NO='CC4',
                                 DX=0.0,
                                 DY=0.0,),
                              _F(GROUP_NO='AD1',
                                 DX=0.0,),
                              _F(GROUP_NO='AD2',
                                 DX=0.0,),
                              _F(GROUP_NO='AD3',
                                 DX=0.0,),
                              _F(GROUP_NO='AD4',
                                 DX=0.0,),
                              _F(GROUP_NO='BD3',
                                 DX=0.0,),
                              _F(GROUP_NO='BD4',
                                 DX=0.0,),),
                    FORCE_NODALE=_F(GROUP_NO='O2',
                                    FY=-9.37500E5,),);

CHA2=AFFE_CHAR_MECA(MODELE=MO,
                    CONTACT=_F(METHODE='CONTINUE',
                               FROTTEMENT='COULOMB',
                               COULOMB=0.4,
                               PROJECTION='QUADRATIQUE',
                               GROUP_MA_MAIT='BCC1',
                               GROUP_MA_ESCL='BCC2',
                               MODL_AXIS='NON',
                               COEF_REGU_CONT = 10.,
                               COEF_REGU_FROT = 10.,
                               ITER_GEOM_MAXI = 2, 
                               ITER_CONT_MAXI=50,
                               ITER_FROT_MAXI=20,                              
                               ),);
                               
#_____________________________________________________________________ 
#                                                       
#               DEFINITION DES FONCTIONS TEMPORELLES    
#_____________________________________________________________________ 
#                                                       

RAMPE=DEFI_FONCTION(NOM_PARA='INST',
                    VALE=(0.0,0.0,1.0,1.0,),
                    PROL_DROITE='LINEAIRE',
                    PROL_GAUCHE='LINEAIRE',);

L_INST=DEFI_LIST_REEL(DEBUT=0.0,
                      INTERVALLE=_F(JUSQU_A=1.0,
                                    NOMBRE=1,),);
                                    
#_____________________________________________________________________ 
#                                                       
#                            RESOLUTION                 
#_____________________________________________________________________ 
#                                                       

U=STAT_NON_LINE(MODELE=MO,
                CHAM_MATER=CHMAT,
                EXCIT=(_F(CHARGE=CHA1,
                          FONC_MULT=RAMPE,),
                       _F(CHARGE=CHA2,),),
                COMP_ELAS=_F(RELATION='ELAS',),
                INCREMENT=_F(LIST_INST=L_INST,),
                NEWTON=_F(MATRICE='TANGENTE',
                          REAC_ITER=1,),
                CONVERGENCE=_F(ITER_GLOB_MAXI=20),
                );

U=CALC_ELEM(reuse =U,
            OPTION=('SIEF_ELNO_ELGA'),
            RESULTAT=U,);

TPRESS=POST_RELEVE_T(ACTION=_F(INTITULE='PRESS',
                              GROUP_NO='RELEVE',
                              RESULTAT=U,
                              INST=1.,
                              NOM_CHAM='SIEF_ELNO_ELGA',
                              NOM_CMP='SIXX',
                              REPERE='POLAIRE',
                              OPERATION='EXTRACTION',),);


TCONT=POST_RELEVE_T(ACTION=_F(INTITULE='CONT',
                              GROUP_NO='RELEVE',
                              RESULTAT=U,
                              INST=1.,
                              NOM_CHAM='VALE_CONT',
                              TOUT_CMP='OUI',
                              OPERATION='EXTRACTION',),);
                              
IMPR_TABLE(TABLE=TPRESS)
IMPR_TABLE(TABLE=TCONT)

#_____________________________________________________________________ 
#                                                       
#                  TRACER DE COURBES INTERACTIF
#_____________________________________________________________________ 
#                                                       

COS    = FORMULE( NOM_PARA=('COOR_X','COOR_Y'),
                  VALE='-180.*atan2(COOR_X,COOR_Y)/pi')

TPRESS = CALC_TABLE(TABLE=TPRESS,reuse=TPRESS,
                    ACTION=_F(OPERATION='OPER',
                              FORMULE=COS,
                              NOM_PARA='COS'),)

TPRES  = CALC_TABLE(TABLE=TPRESS,
                    ACTION=_F(OPERATION='FILTRE',
                              NOM_PARA='COS',
                              CRIT_COMP='LE',
                              VALE=180.),)

IMPR_TABLE(TABLE=TPRESS)

CONT  = FORMULE(NOM_PARA=('CONT'),
                VALE='-1.E6*CONT')

TCONT = CALC_TABLE(TABLE=TCONT,reuse=TCONT,
                   ACTION=(_F(OPERATION='OPER',
                              FORMULE=CONT,
                              NOM_PARA='INDICATEUR'),
                           _F(OPERATION='OPER',
                              FORMULE=COS,
                              NOM_PARA='COS')))

TCON  = CALC_TABLE(TABLE=TCONT,
                   ACTION=_F(OPERATION='FILTRE',
                             NOM_PARA='COS',
                              CRIT_COMP='LE',
                             VALE=180.),)

IMPR_TABLE(TABLE=TCONT)

IMPR_TABLE(
   UNITE=30,
   FORMAT='XMGRACE',
   TABLE=TPRES,
   NOM_PARA=('COS','SIXX'),
   LEGENDE='Pression',
   LEGENDE_X = 'ABS',
   LEGENDE_Y = 'PRESSION',
   BORNE_X   = (0.,90.),
   BORNE_Y   = (2.E6,-2.E7),
   GRILLE_X  = 10.,
   GRILLE_Y  = 2.E6,
   COULEUR=6,
)

#_____________________________________________________________________ 
#                                                       
# TEST DE LA CONFORMITE AVEC LA SOLUTION DE REFERENCE ANALYTIQUE       
#_____________________________________________________________________ 
#                                                       

#
# VALEUR DE PRESSION
#

TEST_TABLE(TABLE=TPRESS,
           FILTRE=(_F(NOM_PARA='INST',
                      VALE=1.,),
                   _F(NOM_PARA='NOEUD',
                      VALE_K='N383',),),
           NOM_PARA='SIXX',
           VALE=-178.13E5,
           PRECISION=0.05674,
           REFERENCE='ANALYTIQUE',);

TEST_TABLE(TABLE=TPRESS,
           FILTRE=(_F(NOM_PARA='INST',
                      VALE=1.,),
                   _F(NOM_PARA='NOEUD',
                      VALE_K='N379',),),
           NOM_PARA='SIXX',
           VALE=-178.13E5,
           PRECISION=0.05197,
           REFERENCE='ANALYTIQUE',);

TEST_TABLE(TABLE=TPRESS,
           FILTRE=(_F(NOM_PARA='INST',
                      VALE=1.,),
                   _F(NOM_PARA='NOEUD',
                      VALE_K='N369',),),
           NOM_PARA='SIXX',
           VALE=-177.50E5,
           PRECISION=0.044,
           REFERENCE='ANALYTIQUE',);

TEST_TABLE(TABLE=TPRESS,
           FILTRE=(_F(NOM_PARA='INST',
                      VALE=1.,),
                   _F(NOM_PARA='NOEUD',
                      VALE_K='N368',),),
           NOM_PARA='SIXX',
           VALE=-176.88E5,
           PRECISION=0.0409,
           REFERENCE='ANALYTIQUE',);

TEST_TABLE(TABLE=TPRESS,
           FILTRE=(_F(NOM_PARA='INST',
                      VALE=1.,),
                   _F(NOM_PARA='NOEUD',
                      VALE_K='N353',),),
           NOM_PARA='SIXX',
           VALE=-175.94E5,
           PRECISION=0.02918,
           REFERENCE='ANALYTIQUE',);

TEST_TABLE(TABLE=TPRESS,
           FILTRE=(_F(NOM_PARA='INST',
                      VALE=1.,),
                   _F(NOM_PARA='NOEUD',
                      VALE_K='N352',),),
           NOM_PARA='SIXX',
           VALE=-174.70E5,
           PRECISION=0.0191,
           REFERENCE='ANALYTIQUE',);

TEST_TABLE(TABLE=TPRESS,
           FILTRE=(_F(NOM_PARA='INST',
                      VALE=1.,),
                   _F(NOM_PARA='NOEUD',
                      VALE_K='N328',),),
           NOM_PARA='SIXX',
           VALE=-173.12E5,
           PRECISION=0.007,
           REFERENCE='ANALYTIQUE',);

TEST_TABLE(TABLE=TPRESS,
           FILTRE=(_F(NOM_PARA='INST',
                      VALE=1.,),
                   _F(NOM_PARA='NOEUD',
                      VALE_K='N327',),),
           NOM_PARA='SIXX',
           VALE=-171.25E5,
           PRECISION=0.019,
           REFERENCE='ANALYTIQUE',);

TEST_TABLE(TABLE=TPRESS,
           FILTRE=(_F(NOM_PARA='INST',
                      VALE=1.,),
                   _F(NOM_PARA='NOEUD',
                      VALE_K='N297',),),
           NOM_PARA='SIXX',
           VALE=-169.06E5,
           PRECISION=0.029,
           REFERENCE='ANALYTIQUE',);

TEST_TABLE(TABLE=TPRESS,
           FILTRE=(_F(NOM_PARA='INST',
                      VALE=1.,),
                   _F(NOM_PARA='NOEUD',
                      VALE_K='N296',),),
           NOM_PARA='SIXX',
           VALE=-166.56E5,
           PRECISION=0.022,
           REFERENCE='ANALYTIQUE',);

TEST_TABLE(TABLE=TPRESS,
           FILTRE=(_F(NOM_PARA='INST',
                      VALE=1.,),
                   _F(NOM_PARA='NOEUD',
                      VALE_K='N282',),),
           NOM_PARA='SIXX',
           VALE=-163.43E5,
           PRECISION=0.034,
           REFERENCE='ANALYTIQUE',);

TEST_TABLE(TABLE=TPRESS,
           FILTRE=(_F(NOM_PARA='INST',
                      VALE=1.,),
                   _F(NOM_PARA='NOEUD',
                      VALE_K='N281',),),
           NOM_PARA='SIXX',
           VALE=-159.37E5,
           PRECISION=0.026,
           REFERENCE='ANALYTIQUE',);

TEST_TABLE(TABLE=TPRESS,
           FILTRE=(_F(NOM_PARA='INST',
                      VALE=1.,),
                   _F(NOM_PARA='NOEUD',
                      VALE_K='N245',),),
           NOM_PARA='SIXX',
           VALE=-154.06E5,
           PRECISION=0.036,
           REFERENCE='ANALYTIQUE',);

TEST_TABLE(TABLE=TPRESS,
           FILTRE=(_F(NOM_PARA='INST',
                      VALE=1.,),
                   _F(NOM_PARA='NOEUD',
                      VALE_K='N244',),),
           NOM_PARA='SIXX',
           VALE=-147.81E5,
           PRECISION=0.044,
           REFERENCE='ANALYTIQUE',);

TEST_TABLE(TABLE=TPRESS,
           FILTRE=(_F(NOM_PARA='INST',
                      VALE=1.,),
                   _F(NOM_PARA='NOEUD',
                      VALE_K='N196',),),
           NOM_PARA='SIXX',
           VALE=-140.31E5,
           PRECISION=0.087,
           REFERENCE='ANALYTIQUE',);

TEST_TABLE(TABLE=TPRESS,
           FILTRE=(_F(NOM_PARA='INST',
                      VALE=1.,),
                   _F(NOM_PARA='NOEUD',
                      VALE_K='N195',),),
           NOM_PARA='SIXX',
           VALE=-130.94E5,
           PRECISION=0.089,
           REFERENCE='ANALYTIQUE',);

TEST_TABLE(TABLE=TPRESS,
           FILTRE=(_F(NOM_PARA='INST',
                      VALE=1.,),
                   _F(NOM_PARA='NOEUD',
                      VALE_K='N190',),),
           NOM_PARA='SIXX',
           VALE=-111.69E5,
           PRECISION=0.043,
           REFERENCE='ANALYTIQUE',);

TEST_TABLE(TABLE=TPRESS,
           FILTRE=(_F(NOM_PARA='INST',
                      VALE=1.,),
                   _F(NOM_PARA='NOEUD',
                      VALE_K='N189',),),
           NOM_PARA='SIXX',
           VALE=-105.93E5,
           PRECISION=0.09,
           REFERENCE='ANALYTIQUE',);
           
#
# ADHERENT OU GLISSANT
#

#TEST_TABLE(TABLE=TCONT,
#           FILTRE=(_F(NOM_PARA='INST',
#                      VALE=1.,),
#                   _F(NOM_PARA='NOEUD',
#                      VALE_K='N296',),),
#           NOM_PARA='CONT',
#           VALE=1.,
#           PRECISION=1.E-5,
#           REFERENCE='NON_REGRESSION',
#           VERSION='V6.3.22',);

TEST_TABLE(TABLE=TCONT,
           FILTRE=(_F(NOM_PARA='INST',
                      VALE=1.,),
                   _F(NOM_PARA='NOEUD',
                      VALE_K='N282',),),
           NOM_PARA='CONT',
           VALE=2.,
           PRECISION=1.E-5,
           REFERENCE='NON_REGRESSION',
           VERSION='V6.3.22',);

FIN();
