# MODIF  DATE 08/12/2009   AUTEUR PROIX J-M.PROIX 
# TITRE COUDE EN FLEXION PLANE
# ssnv144a.para = tps_job 390 mem_job 300Mo ncpus 1 liste_test S
#            CONFIGURATION MANAGEMENT OF EDF VERSION
# ======================================================================
# COPYRIGHT (C) 1991 - 2001  EDF R&D                  WWW.CODE-ASTER.ORG
# THIS PROGRAM IS FREE SOFTWARE; YOU CAN REDISTRIBUTE IT AND/OR MODIFY
# IT UNDER THE TERMS OF THE GNU GENERAL PUBLIC LICENSE AS PUBLISHED BY
# THE FREE SOFTWARE FOUNDATION; EITHER VERSION 2 OF THE LICENSE, OR   
# (AT YOUR OPTION) ANY LATER VERSION.                                 
#
# THIS PROGRAM IS DISTRIBUTED IN THE HOPE THAT IT WILL BE USEFUL, BUT 
# WITHOUT ANY WARRANTY; WITHOUT EVEN THE IMPLIED WARRANTY OF          
# MERCHANTABILITY OR FITNESS FOR A PARTICULAR PURPOSE. SEE THE GNU    
# GENERAL PUBLIC LICENSE FOR MORE DETAILS.                            
#
# YOU SHOULD HAVE RECEIVED A COPY OF THE GNU GENERAL PUBLIC LICENSE   
# ALONG WITH THIS PROGRAM; IF NOT, WRITE TO EDF R&D CODE_ASTER,       
#    1 AVENUE DU GENERAL DE GAULLE, 92141 CLAMART CEDEX, FRANCE.      
# ======================================================================

DEBUT(CODE=_F( NOM = 'SSNV144A',NIV_PUB_WEB='INTERNET') )

TITRE='CPPN4 CAS 3 COQUE 3D'

COMMENT='360 ELEMENTS QUAD9,136 ELEMENTS SEG3,R=1.250M EP=77MM,FLEXION DANS LE PLAN'

EP=0.077

RMOY=0.3955

RMOYN=- RMOY

REXT=RMOY + (EP/2.)

RC=1.25

LTUBE=1.

L=RC + LTUBE

YOUNG=2.E11

POISSON=0.3

SIGY=200.E6

H=2.E10

K=0.8333333333

MOMENTMZ=1.

FYMAX=MOMENTMZ / (RMOY * RMOY * pi)

FYMAXN=- FYMAX

# MPY ET MPZ SONT DONNES PAR LA COURBE ML/MLS CF RAPPORT BOYLE&SPENCE


MLSURMLS=0.8

BETA=0.001

# PETITS CALCULS


RINT=RMOY - (EP/2.)

LAMBDA=EP*RC/RMOY/RMOY

CFLEX=1.65 / LAMBDA

SURF=pi* (REXT*REXT-RINT*RINT)

IY=pi*(REXT**4-RINT**4)/4.

IZ=IY

IX=IY + IZ

IYFLEX=IY / CFLEX

IZFLEX=IZ / CFLEX

NP=SURF * SIGY

MEDR=SIGY*IY/REXT

MPDR=4.0*MEDR/pi

MPX=SIGY*IX/REXT

# STHETA EST DONNE PAR LA FORMULE DE SOBEL (HOOP STRESS MAX)

GAMMA=RC/RMOY

STHETA1=1.89/(LAMBDA**(0.666667))

STHETA2=0.96/(LAMBDA**(0.333333))/GAMMA

STHETA=STHETA1 - STHETA2

MEFL=MEDR / STHETA

MPFL=MEFL*100.0

#

FDET=MPFL * 1.E-3

#

MAINI=LIRE_MAILLAGE( )

MAINI=DEFI_GROUP( reuse=MAINI,   MAILLAGE=MAINI,
                      CREA_GROUP_MA=_F(  NOM = 'TOUT', TOUT = 'OUI') )

MA=CREA_MAILLAGE(   MAILLAGE=MAINI,
                       MODI_MAILLE=_F( OPTION = 'QUAD8_9',
                                    TOUT = 'OUI')  )

MA=DEFI_GROUP(reuse=MA,  MAILLAGE=MA,CREA_GROUP_NO=(
                 _F( GROUP_MA = 'CERCLE1'),
                 _F( GROUP_MA = 'CERCLE2')))

MO=AFFE_MODELE(        MAILLAGE=MA,
         AFFE=_F( TOUT = 'OUI',  PHENOMENE = 'MECANIQUE',
                     MODELISATION = 'COQUE_3D')
                      )

#------CARACTERESTIQUES ELEMENTAIRES----------------------


CAREL=AFFE_CARA_ELEM(   MODELE=MO,
                                 COQUE=_F(
       GROUP_MA = 'TOUT',

                                        EPAIS = EP,
                                        A_CIS = K,
                                        COEF_RIGI_DRZ = 1.E-5)

                             )

#-------CARCTERESTIQUES DU MATERIAUX----------------------

MAT=DEFI_MATERIAU(   ELAS=_F( E = YOUNG, NU = POISSON),
                       ECRO_LINE=_F( D_SIGM_EPSI = H, SY = 1.E+14)
                    )

CHMAT=AFFE_MATERIAU(   MAILLAGE=MA,
                       AFFE=_F( TOUT = 'OUI', MATER = MAT))

#--------------- NIVEAU DE CHARGE FINAL ------------------


FYMAXI=FYMAX *  FDET

FYMAXNI=- FYMAXI

#-------------- CONDITIONS AUX LIMITES -------------------

FXFY=DEFI_FONCTION(    NOM_PARA='Y',
                         VALE=(  RMOYN,    FYMAXI,
                                 RMOY,     FYMAXNI, ),
                         PROL_DROITE='LINEAIRE',
                         PROL_GAUCHE='LINEAIRE'
                      )

D0=DEFI_CONSTANTE(   VALE=0.)

CHART=AFFE_CHAR_MECA_F(   MODELE=MO,
     DDL_IMPO=_F( GROUP_NO = 'CERCLE1',
              DX = D0, DY = D0, DZ = D0, DRX = D0, DRY = D0, DRZ = D0),
     FORCE_ARETE=_F( GROUP_MA = 'CERCLE2', FX = FXFY)
                      )

#-------------------MECA_STATIQUE-----------------------


LINEAI=MECA_STATIQUE(  MODELE=MO,
                          CHAM_MATER=CHMAT,
                          CARA_ELEM=CAREL,
                         EXCIT=_F(  CHARGE = CHART)
                        )

#
#
#
###  LES COUPLES DE NOEUDS ONT LE MEME X ET Y ET ABS ( Z )
###
###  LE CHARGEMENT EST SUIVANT X
###  SYMETRIE SUIVANT Y
#
#
###
###  MEMES
###
###  DX   DY  ABZ  ( DZ )   ABS ( DRX )  ABS  ( DRY ) ET  ABS ( DRZ )
###
#
#
# ON TESTE LES DEPLACEMENTS LINEAIRES D UNE MANIERE NON REGRESSIVE
##################################################################
#
#     N1157
###########
#
#
TEST_RESU(
  RESU=_F(  RESULTAT = LINEAI,  NOM_CHAM = 'DEPL', CRITERE = 'RELATIF',
REFERENCE = 'NON_REGRESSION', VERSION = '5.02.14',
NUME_ORDRE = 1,
NOEUD = 'N1157',  NOM_CMP = 'DX',  VALE = 6.51271E-04,  PRECISION = 6.49E-08))

#
TEST_RESU(
  RESU=_F(  RESULTAT = LINEAI,  NOM_CHAM = 'DEPL', CRITERE = 'RELATIF',
REFERENCE = 'NON_REGRESSION', VERSION = '5.02.14',
NUME_ORDRE = 1,
NOEUD = 'N1157',  NOM_CMP = 'DY',  VALE = 1.08154E-03,  PRECISION = 9.44E-07))

#
TEST_RESU(
  RESU=_F(  RESULTAT = LINEAI,  NOM_CHAM = 'DEPL', CRITERE = 'ABSOLU',
REFERENCE = 'NON_REGRESSION', VERSION = '5.02.14',
NUME_ORDRE = 1,
NOEUD = 'N1157',  NOM_CMP = 'DZ',  VALE = 0.00000E+00, PRECISION = 1.E-10))

#
TEST_RESU(
  RESU=_F(  RESULTAT = LINEAI,  NOM_CHAM = 'DEPL', CRITERE = 'ABSOLU',
REFERENCE = 'NON_REGRESSION', VERSION = '5.02.14',
NUME_ORDRE = 1,
NOEUD = 'N1157',  NOM_CMP = 'DRX', VALE = 0.00000E+00, PRECISION = 1.E-10))

#
TEST_RESU(
  RESU=_F(  RESULTAT = LINEAI,  NOM_CHAM = 'DEPL', CRITERE = 'ABSOLU',
REFERENCE = 'NON_REGRESSION', VERSION = '5.02.14',
NUME_ORDRE = 1,
NOEUD = 'N1157',  NOM_CMP = 'DRY', VALE = 0.00000E+00,  PRECISION = 1.E-10))

#
TEST_RESU(
  RESU=_F(  RESULTAT = LINEAI,  NOM_CHAM = 'DEPL', CRITERE = 'RELATIF',
REFERENCE = 'NON_REGRESSION', VERSION = '5.02.14',
NUME_ORDRE = 1,
NOEUD = 'N1157',  NOM_CMP = 'DRZ', VALE = 5.84655E-04, PRECISION = 6.51E-07))

#
#
#
#     N1104
###########
#
TEST_RESU(
  RESU=_F(  RESULTAT = LINEAI,  NOM_CHAM = 'DEPL', CRITERE = 'RELATIF',
REFERENCE = 'NON_REGRESSION', VERSION = '5.02.14',
NUME_ORDRE = 1,
NOEUD = 'N1104',  NOM_CMP = 'DX',  VALE = 1.28830E-04,  PRECISION = 1.88E-06))

#
TEST_RESU(
  RESU=_F(  RESULTAT = LINEAI,  NOM_CHAM = 'DEPL', CRITERE = 'RELATIF',
REFERENCE = 'NON_REGRESSION', VERSION = '5.02.14',
NUME_ORDRE = 1,
NOEUD = 'N1104',  NOM_CMP = 'DY',  VALE = 1.09424E-03,  PRECISION = 3.15E-06))

#
#
TEST_RESU(
  RESU=_F(  RESULTAT = LINEAI,  NOM_CHAM = 'DEPL', CRITERE = 'ABSOLU',
REFERENCE = 'NON_REGRESSION', VERSION = '5.02.14',
NUME_ORDRE = 1,
NOEUD = 'N1104',  NOM_CMP = 'DZ',  VALE = 0.00000E+00, PRECISION = 1.E-10))

#
TEST_RESU(
  RESU=_F(  RESULTAT = LINEAI,  NOM_CHAM = 'DEPL', CRITERE = 'ABSOLU',
REFERENCE = 'NON_REGRESSION', VERSION = '5.02.14',
NUME_ORDRE = 1,
NOEUD = 'N1104',  NOM_CMP = 'DRX', VALE = 0.00000E+00, PRECISION = 1.E-10))

#
TEST_RESU(
  RESU=_F(  RESULTAT = LINEAI,  NOM_CHAM = 'DEPL', CRITERE = 'ABSOLU',
REFERENCE = 'NON_REGRESSION', VERSION = '5.02.14',
NUME_ORDRE = 1,
NOEUD = 'N1104',  NOM_CMP = 'DRY', VALE = 0.00000E+00, PRECISION = 1.E-10))

#
TEST_RESU(
  RESU=_F(  RESULTAT = LINEAI,  NOM_CHAM = 'DEPL', CRITERE = 'RELATIF',
REFERENCE = 'NON_REGRESSION', VERSION = '5.02.14',
NUME_ORDRE = 1,
NOEUD = 'N1104',  NOM_CMP = 'DRZ', VALE = 6.81747E-04, PRECISION = 5.81E-07))

#
#
#     N1109
###########
#
TEST_RESU(
  RESU=_F(  RESULTAT = LINEAI,  NOM_CHAM = 'DEPL', CRITERE = 'RELATIF',
REFERENCE = 'NON_REGRESSION', VERSION = '5.02.14',
NUME_ORDRE = 1,
NOEUD = 'N1109',  NOM_CMP = 'DX',  VALE = 4.01834E-04,  PRECISION = 1.61E-07))

#
TEST_RESU(
  RESU=_F(  RESULTAT = LINEAI,  NOM_CHAM = 'DEPL', CRITERE = 'RELATIF',
REFERENCE = 'NON_REGRESSION', VERSION = '5.02.14',
NUME_ORDRE = 1,
NOEUD = 'N1109',  NOM_CMP = 'DY',  VALE = 1.08427E-03,  PRECISION = 2.92E-06))

#
TEST_RESU(
  RESU=_F(  RESULTAT = LINEAI,  NOM_CHAM = 'DEPL', CRITERE = 'RELATIF',
REFERENCE = 'NON_REGRESSION', VERSION = '5.02.14',
NUME_ORDRE = 1,
NOEUD = 'N1109',  NOM_CMP = 'DZ',  VALE = 6.34660E-06, PRECISION = 8.7E-08))

#
TEST_RESU(
  RESU=_F(  RESULTAT = LINEAI,  NOM_CHAM = 'DEPL', CRITERE = 'RELATIF',
REFERENCE = 'NON_REGRESSION', VERSION = '5.02.14',
NUME_ORDRE = 1,
NOEUD = 'N1109',  NOM_CMP = 'DRX', VALE = -8.06992E-06, PRECISION = 7.78E-8))

#
TEST_RESU(
  RESU=_F(  RESULTAT = LINEAI,  NOM_CHAM = 'DEPL', CRITERE = 'RELATIF',
REFERENCE = 'NON_REGRESSION', VERSION = '5.02.14',
NUME_ORDRE = 1,
NOEUD = 'N1109',  NOM_CMP = 'DRY', VALE = -4.85229E-05,  PRECISION = 5.35E-07))

#
TEST_RESU(
  RESU=_F(  RESULTAT = LINEAI,  NOM_CHAM = 'DEPL', CRITERE = 'RELATIF',
REFERENCE = 'NON_REGRESSION', VERSION = '5.02.14',
NUME_ORDRE = 1,
NOEUD = 'N1109',  NOM_CMP = 'DRZ', VALE = -9.39844E-05,  PRECISION = 6.63E-08))

#
#
########################################################################
#
#
TEST_RESU(
  RESU=_F(  RESULTAT = LINEAI,  NOM_CHAM = 'DEPL', CRITERE = 'RELATIF',
REFERENCE = 'NON_REGRESSION', VERSION = '5.02.14',
NUME_ORDRE = 1,
NOEUD = 'N1099',  NOM_CMP = 'DX', VALE = 4.01834E-04,  PRECISION = 1.61E-07))

#

TEST_RESU(
  RESU=_F(  RESULTAT = LINEAI,  NOM_CHAM = 'DEPL', CRITERE = 'RELATIF',
REFERENCE = 'NON_REGRESSION', VERSION = '5.02.14',
NUME_ORDRE = 1,
NOEUD = 'N1099',  NOM_CMP = 'DY', VALE = 1.08427E-03,  PRECISION = 2.92E-06))

#
TEST_RESU(
  RESU=_F(  RESULTAT = LINEAI,  NOM_CHAM = 'DEPL', CRITERE = 'RELATIF',
REFERENCE = 'NON_REGRESSION', VERSION = '5.02.14',
NUME_ORDRE = 1,
NOEUD = 'N1099',  NOM_CMP = 'DZ', VALE = -6.34660E-06, PRECISION = 8.69E-08))

#
TEST_RESU(
  RESU=_F(  RESULTAT = LINEAI,  NOM_CHAM = 'DEPL', CRITERE = 'RELATIF',
REFERENCE = 'NON_REGRESSION', VERSION = '5.02.14',
NUME_ORDRE = 1,
NOEUD = 'N1099',  NOM_CMP = 'DRX', VALE = 8.06992E-06, PRECISION = 7.78E-8))

#
TEST_RESU(
  RESU=_F(  RESULTAT = LINEAI,  NOM_CHAM = 'DEPL', CRITERE = 'RELATIF',
REFERENCE = 'NON_REGRESSION', VERSION = '5.02.14',
NUME_ORDRE = 1,
NOEUD = 'N1099',  NOM_CMP = 'DRY', VALE = 4.85229E-05, PRECISION = 5.35E-07))

#
TEST_RESU(
  RESU=_F(  RESULTAT = LINEAI,  NOM_CHAM = 'DEPL', CRITERE = 'RELATIF',
REFERENCE = 'NON_REGRESSION', VERSION = '5.02.14',
NUME_ORDRE = 1,
NOEUD = 'N1099',  NOM_CMP = 'DRZ', VALE = -9.39844E-05, PRECISION = 6.63E-08))

#
#
#
#
#            D E C O U P A G E    T E M P O R E L
########################################################################
#
#
#



FONCT=DEFI_FONCTION(   NOM_PARA='INST',
                      VALE=( 0., 0., 1., 1., ) )

#
#
#

LI1PAS=DEFI_LIST_REEL(DEBUT=0.,
               INTERVALLE=_F( JUSQU_A = 1., NOMBRE = 1)
                        )

LI2PAS=DEFI_LIST_REEL(DEBUT=0.,
               INTERVALLE=_F( JUSQU_A = 1., NOMBRE = 10)
                        )

#
#
#
#
#
#            A N A L Y S E   N O N    LINEAIRE    PLASTICITE
########################################################################
#
#


COQUE1P=STAT_NON_LINE(
                            MODELE=MO,
                        CHAM_MATER=CHMAT,
                         CARA_ELEM=CAREL,
                             EXCIT=_F(
                CHARGE = CHART,
                FONC_MULT = FONCT),
                         COMP_INCR=_F(
                RELATION = 'VMIS_ISOT_LINE',
               ),
                         INCREMENT=_F(
                LIST_INST = LI1PAS),
                            NEWTON=_F(
                MATRICE = 'TANGENTE',
                REAC_ITER = 1),
                       CONVERGENCE=_F(
                RESI_GLOB_MAXI = 1.E-3,
                ITER_GLOB_MAXI = 25,
                ARRET = 'OUI')
              )

#
#
########################################################################
#
#
# ON TESTE LE NOMBRE D ITERATION = 2 DE NEWTON SUR LE PAS 1
######################################################################
#
#
TEST_RESU(

RESU=_F(  RESULTAT = COQUE1P, NUME_ORDRE = 1, PARA = 'ITER_GLOB', VALE_I = 0,
REFERENCE = 'NON_REGRESSION', VERSION = '5.02.14',
CRITERE = 'ABSOLU', PRECISION = 1.))

#
#
#
#
#
# ON TESTE LE NOMBRE RESI_GLOB_RELA  = 3.E-12 SUR LE PAS 1
######################################################################
#
TEST_RESU(

RESU=_F(  RESULTAT = COQUE1P, NUME_ORDRE = 1, PARA = 'RESI_GLOB_RELA', VALE = 0.,
REFERENCE = 'NON_REGRESSION', VERSION = '5.02.14',
CRITERE = 'ABSOLU', PRECISION = 3.E-12))

#
#
#
#
#
# ON TESTE LE NOMBRE RESI_GLOB_MAXI  = 1.5E-07 SUR LE PAS 1
######################################################################
#
TEST_RESU(

RESU=_F(  RESULTAT = COQUE1P, NUME_ORDRE = 1, PARA = 'RESI_GLOB', VALE = 0.,
REFERENCE = 'NON_REGRESSION', VERSION = '5.02.14',
CRITERE = 'ABSOLU', PRECISION = 1.5E-07))

#
#
#
########################################################################
#
##############################
#
#
#
# ON TESTE LES DEPLACEMENTS COQUE1P D UNE MANIERE NON REGRESSIVE
##################################################################
#
#
#
#     N1157
###########
#
#
TEST_RESU(
  RESU=_F(  RESULTAT = COQUE1P,  NOM_CHAM = 'DEPL', CRITERE = 'RELATIF',
REFERENCE = 'NON_REGRESSION', VERSION = '5.02.14',
NUME_ORDRE = 1,
NOEUD = 'N1157',  NOM_CMP = 'DX',  VALE = 6.51271E-04,  PRECISION = 0.160E-2))

#
TEST_RESU(
  RESU=_F(  RESULTAT = COQUE1P,  NOM_CHAM = 'DEPL', CRITERE = 'RELATIF',
REFERENCE = 'NON_REGRESSION', VERSION = '5.02.14',
NUME_ORDRE = 1,
NOEUD = 'N1157',  NOM_CMP = 'DY',  VALE = 1.08154E-03,  PRECISION = 0.209E-02))

#
TEST_RESU(
  RESU=_F(  RESULTAT = COQUE1P,  NOM_CHAM = 'DEPL', CRITERE = 'ABSOLU',
REFERENCE = 'NON_REGRESSION', VERSION = '5.02.14',
NUME_ORDRE = 1,
NOEUD = 'N1157',  NOM_CMP = 'DZ',  VALE = 0.00000E+00, PRECISION = 1.E-10))

#
TEST_RESU(
  RESU=_F(  RESULTAT = COQUE1P,  NOM_CHAM = 'DEPL', CRITERE = 'ABSOLU',
REFERENCE = 'NON_REGRESSION', VERSION = '5.02.14',
NUME_ORDRE = 1,
NOEUD = 'N1157',  NOM_CMP = 'DRX', VALE = 0.00000E+00, PRECISION = 1.E-10))

#
TEST_RESU(
  RESU=_F(  RESULTAT = COQUE1P,  NOM_CHAM = 'DEPL', CRITERE = 'ABSOLU',
REFERENCE = 'NON_REGRESSION', VERSION = '5.02.14',
NUME_ORDRE = 1,
NOEUD = 'N1157',  NOM_CMP = 'DRY', VALE = 0.00000E+00,  PRECISION = 1.E-10))

#
TEST_RESU(
  RESU=_F(  RESULTAT = COQUE1P,  NOM_CHAM = 'DEPL', CRITERE = 'RELATIF',
REFERENCE = 'NON_REGRESSION', VERSION = '5.02.14',
NUME_ORDRE = 1,
NOEUD = 'N1157',  NOM_CMP = 'DRZ', VALE = 5.84655E-04, PRECISION = 0.173E-2))

#
#
#
#     N1104
###########
#
TEST_RESU(
  RESU=_F(  RESULTAT = COQUE1P,  NOM_CHAM = 'DEPL', CRITERE = 'RELATIF',
REFERENCE = 'NON_REGRESSION', VERSION = '5.02.14',
NUME_ORDRE = 1,
NOEUD = 'N1104',  NOM_CMP = 'DX',  VALE = 1.28830E-04,  PRECISION = 0.028E-02))

#
TEST_RESU(
  RESU=_F(  RESULTAT = COQUE1P,  NOM_CHAM = 'DEPL', CRITERE = 'RELATIF',
REFERENCE = 'NON_REGRESSION', VERSION = '5.02.14',
NUME_ORDRE = 1,
NOEUD = 'N1104',  NOM_CMP = 'DY',  VALE = 1.09424E-03,  PRECISION = 0.206E-02))

#
#
TEST_RESU(
  RESU=_F(  RESULTAT = COQUE1P,  NOM_CHAM = 'DEPL', CRITERE = 'ABSOLU',
REFERENCE = 'NON_REGRESSION', VERSION = '5.02.14',
NUME_ORDRE = 1,
NOEUD = 'N1104',  NOM_CMP = 'DZ',  VALE = 0.00000E+00, PRECISION = 1.E-10))

#
TEST_RESU(
  RESU=_F(  RESULTAT = COQUE1P,  NOM_CHAM = 'DEPL', CRITERE = 'ABSOLU',
REFERENCE = 'NON_REGRESSION', VERSION = '5.02.14',
NUME_ORDRE = 1,
NOEUD = 'N1104',  NOM_CMP = 'DRX', VALE = 0.00000E+00, PRECISION = 1.E-10))

#
TEST_RESU(
  RESU=_F(  RESULTAT = COQUE1P,  NOM_CHAM = 'DEPL', CRITERE = 'ABSOLU',
REFERENCE = 'NON_REGRESSION', VERSION = '5.02.14',
NUME_ORDRE = 1,
NOEUD = 'N1104',  NOM_CMP = 'DRY', VALE = 0.00000E+00, PRECISION = 1.E-10))

#
TEST_RESU(
  RESU=_F(  RESULTAT = COQUE1P,  NOM_CHAM = 'DEPL', CRITERE = 'RELATIF',
REFERENCE = 'NON_REGRESSION', VERSION = '5.02.14',
NUME_ORDRE = 1,
NOEUD = 'N1104',  NOM_CMP = 'DRZ', VALE = 6.81747E-04, PRECISION = 0.224E-2))

#
#
#     N1109
###########
#
TEST_RESU(
  RESU=_F(  RESULTAT = COQUE1P,  NOM_CHAM = 'DEPL', CRITERE = 'RELATIF',
REFERENCE = 'NON_REGRESSION', VERSION = '5.02.14',
NUME_ORDRE = 1,
NOEUD = 'N1109',  NOM_CMP = 'DX',  VALE = 4.01834E-04,  PRECISION = 0.149E-02))

#
TEST_RESU(
  RESU=_F(  RESULTAT = COQUE1P,  NOM_CHAM = 'DEPL', CRITERE = 'RELATIF',
REFERENCE = 'NON_REGRESSION', VERSION = '5.02.14',
NUME_ORDRE = 1,
NOEUD = 'N1109',  NOM_CMP = 'DY',  VALE = 1.08427E-03,  PRECISION = 0.208E-02))

#
TEST_RESU(
  RESU=_F(  RESULTAT = COQUE1P,  NOM_CHAM = 'DEPL', CRITERE = 'RELATIF',
REFERENCE = 'NON_REGRESSION', VERSION = '5.02.14',
NUME_ORDRE = 1,
NOEUD = 'N1109',  NOM_CMP = 'DZ',  VALE = 6.34660E-06, PRECISION = 0.022E-02))

#
TEST_RESU(
  RESU=_F(  RESULTAT = COQUE1P,  NOM_CHAM = 'DEPL', CRITERE = 'RELATIF',
REFERENCE = 'NON_REGRESSION', VERSION = '5.02.14',
NUME_ORDRE = 1,
NOEUD = 'N1109',  NOM_CMP = 'DRX', VALE = -8.06992E-06, PRECISION = 0.382E-2))

#
TEST_RESU(
  RESU=_F(  RESULTAT = COQUE1P,  NOM_CHAM = 'DEPL', CRITERE = 'RELATIF',
REFERENCE = 'NON_REGRESSION', VERSION = '5.02.14',
NUME_ORDRE = 1,
NOEUD = 'N1109',  NOM_CMP = 'DRY', VALE = -4.85229E-05, PRECISION = 0.533E-2))

#
TEST_RESU(
  RESU=_F(  RESULTAT = COQUE1P,  NOM_CHAM = 'DEPL', CRITERE = 'RELATIF',
REFERENCE = 'NON_REGRESSION', VERSION = '5.02.14',
NUME_ORDRE = 1,
NOEUD = 'N1109',  NOM_CMP = 'DRZ', VALE = -9.39844E-05, PRECISION = 0.553E-02))

#
#
#
#
TEST_RESU(
  RESU=_F(  RESULTAT = COQUE1P,  NOM_CHAM = 'DEPL', CRITERE = 'RELATIF',
REFERENCE = 'NON_REGRESSION', VERSION = '5.02.14',
NUME_ORDRE = 1,
NOEUD = 'N1099',  NOM_CMP = 'DX', VALE = 4.01834E-04,  PRECISION = 0.149E-2))

#

TEST_RESU(
  RESU=_F(  RESULTAT = COQUE1P,  NOM_CHAM = 'DEPL', CRITERE = 'RELATIF',
REFERENCE = 'NON_REGRESSION', VERSION = '5.02.14',
NUME_ORDRE = 1,
NOEUD = 'N1099',  NOM_CMP = 'DY', VALE = 1.08427E-03,  PRECISION = 0.208E-2))

#
TEST_RESU(
  RESU=_F(  RESULTAT = COQUE1P,  NOM_CHAM = 'DEPL', CRITERE = 'RELATIF',
REFERENCE = 'NON_REGRESSION', VERSION = '5.02.14',
NUME_ORDRE = 1,
NOEUD = 'N1099',  NOM_CMP = 'DZ', VALE = -6.34660E-06, PRECISION = 0.022E-2))

#
TEST_RESU(
  RESU=_F(  RESULTAT = COQUE1P,  NOM_CHAM = 'DEPL', CRITERE = 'RELATIF',
REFERENCE = 'NON_REGRESSION', VERSION = '5.02.14',
NUME_ORDRE = 1,
NOEUD = 'N1099',  NOM_CMP = 'DRX', VALE = 8.06992E-06, PRECISION = 0.382E-2))

#
TEST_RESU(
  RESU=_F(  RESULTAT = COQUE1P,  NOM_CHAM = 'DEPL', CRITERE = 'RELATIF',
REFERENCE = 'NON_REGRESSION', VERSION = '5.02.14',
NUME_ORDRE = 1,
NOEUD = 'N1099',  NOM_CMP = 'DRY', VALE = 4.85229E-05, PRECISION = 0.533E-2))

#
TEST_RESU(
  RESU=_F(  RESULTAT = COQUE1P,  NOM_CHAM = 'DEPL', CRITERE = 'RELATIF',
REFERENCE = 'NON_REGRESSION', VERSION = '5.02.14',
NUME_ORDRE = 1,
NOEUD = 'N1099',  NOM_CMP = 'DRZ', VALE = -9.39844E-05, PRECISION = 0.553E-2))

#
#
########################################################################
#
#            A N A L Y S E   N O N    LINEAIRE    GRANDES   ROTATIONS
########################################################################
#
#

COQUE1E=STAT_NON_LINE(
                            MODELE=MO,
                        CHAM_MATER=CHMAT,
                         CARA_ELEM=CAREL,
                             EXCIT=_F(
                CHARGE = CHART,
                FONC_MULT = FONCT),
                         COMP_ELAS=_F(
                RELATION = 'ELAS',
                DEFORMATION = 'GROT_GDEP',
               ),
                         INCREMENT=_F(
                LIST_INST = LI2PAS),
                            NEWTON=_F(
                MATRICE = 'TANGENTE',
                REAC_ITER = 1),
                       CONVERGENCE=_F(
                RESI_GLOB_MAXI = 1.E-3,
                ITER_GLOB_MAXI = 25,
                ARRET = 'OUI')
              )

########################################################################
#
#
# ON TESTE LE NOMBRE D ITERATION = 4 DE NEWTON SUR LE PAS 1
######################################################################
#
#
TEST_RESU(

RESU=_F(  RESULTAT = COQUE1E, NUME_ORDRE = 1, PARA = 'ITER_GLOB', VALE_I = 0,
REFERENCE = 'NON_REGRESSION', VERSION = '5.02.14',
CRITERE = 'ABSOLU', PRECISION = 3.))

#
#
#
#
#
# ON TESTE LE NOMBRE RESI_GLOB_RELA  = 2.21E-12 SUR LE PAS 1
######################################################################
#
TEST_RESU(

RESU=_F(  RESULTAT = COQUE1E, NUME_ORDRE = 1, PARA = 'RESI_GLOB_RELA', VALE = 0.,
REFERENCE = 'NON_REGRESSION', VERSION = '5.02.14',
CRITERE = 'ABSOLU', PRECISION = 2.E-10))

#
#
#
#
#
# ON TESTE LE NOMBRE RESI_GLOB_MAXI  = 1.40E-07 SUR LE PAS 1
######################################################################
#
TEST_RESU(

RESU=_F(  RESULTAT = COQUE1E, NUME_ORDRE = 1, PARA = 'RESI_GLOB', VALE = 0.,
REFERENCE = 'NON_REGRESSION', VERSION = '5.02.14',
CRITERE = 'ABSOLU', PRECISION = 5.4E-07))


#
#
#
########################################################################
#
# ON TESTE LES DEPLACEMENTS COQUE1E D UNE MANIERE NON REGRESSIVE
##################################################################
#
#
#
#
#     N1157
###########
#
#
TEST_RESU(
  RESU=_F(  RESULTAT = COQUE1E,  NOM_CHAM = 'DEPL', CRITERE = 'RELATIF',
REFERENCE = 'NON_REGRESSION', VERSION = '5.02.14',
NUME_ORDRE = 10,
NOEUD = 'N1157',  NOM_CMP = 'DX',  VALE = 6.51271E-04,  PRECISION = 0.161E-2))

#
TEST_RESU(
  RESU=_F(  RESULTAT = COQUE1E,  NOM_CHAM = 'DEPL', CRITERE = 'RELATIF',
REFERENCE = 'NON_REGRESSION', VERSION = '5.02.14',
NUME_ORDRE = 10,
NOEUD = 'N1157',  NOM_CMP = 'DY',  VALE = 1.08154E-03,  PRECISION = 0.164E-2))

#
TEST_RESU(
  RESU=_F(  RESULTAT = COQUE1E,  NOM_CHAM = 'DEPL', CRITERE = 'ABSOLU',
REFERENCE = 'NON_REGRESSION', VERSION = '5.02.14',
NUME_ORDRE = 10,
NOEUD = 'N1157',  NOM_CMP = 'DZ',  VALE = 0.00000E+00, PRECISION = 1.E-10))

#
TEST_RESU(
  RESU=_F(  RESULTAT = COQUE1E,  NOM_CHAM = 'DEPL', CRITERE = 'ABSOLU',
REFERENCE = 'NON_REGRESSION', VERSION = '5.02.14',
NUME_ORDRE = 10,
NOEUD = 'N1157',  NOM_CMP = 'DRX', VALE = 0.00000E+00, PRECISION = 1.E-10))

#
TEST_RESU(
  RESU=_F(  RESULTAT = COQUE1E,  NOM_CHAM = 'DEPL', CRITERE = 'ABSOLU',
REFERENCE = 'NON_REGRESSION', VERSION = '5.02.14',
NUME_ORDRE = 10,
NOEUD = 'N1157',  NOM_CMP = 'DRY', VALE = 0.00000E+00,  PRECISION = 1.E-10))

#
TEST_RESU(
  RESU=_F(  RESULTAT = COQUE1E,  NOM_CHAM = 'DEPL', CRITERE = 'RELATIF',
REFERENCE = 'NON_REGRESSION', VERSION = '5.02.14',
NUME_ORDRE = 10,
NOEUD = 'N1157',  NOM_CMP = 'DRZ', VALE = 5.84655E-04, PRECISION = 0.265E-2))

#
#
#
#     N1104
###########
#
TEST_RESU(
  RESU=_F(  RESULTAT = COQUE1E,  NOM_CHAM = 'DEPL', CRITERE = 'RELATIF',
REFERENCE = 'NON_REGRESSION', VERSION = '5.02.14',
NUME_ORDRE = 10,
NOEUD = 'N1104',  NOM_CMP = 'DX',  VALE = 1.28830E-04,  PRECISION = 0.274E-2))

#
TEST_RESU(
  RESU=_F(  RESULTAT = COQUE1E,  NOM_CHAM = 'DEPL', CRITERE = 'RELATIF',
REFERENCE = 'NON_REGRESSION', VERSION = '5.02.14',
NUME_ORDRE = 10,
NOEUD = 'N1104',  NOM_CMP = 'DY',  VALE = 1.09424E-03,  PRECISION = 0.115E-2))

#
#
TEST_RESU(
  RESU=_F(  RESULTAT = COQUE1E,  NOM_CHAM = 'DEPL', CRITERE = 'ABSOLU',
REFERENCE = 'NON_REGRESSION', VERSION = '5.02.14',
NUME_ORDRE = 10,
NOEUD = 'N1104',  NOM_CMP = 'DZ',  VALE = 0.00000E+00, PRECISION = 1.E-10))

#
TEST_RESU(
  RESU=_F(  RESULTAT = COQUE1E,  NOM_CHAM = 'DEPL', CRITERE = 'ABSOLU',
REFERENCE = 'NON_REGRESSION', VERSION = '5.02.14',
NUME_ORDRE = 10,
NOEUD = 'N1104',  NOM_CMP = 'DRX', VALE = 0.00000E+00, PRECISION = 1.E-10))

#
TEST_RESU(
  RESU=_F(  RESULTAT = COQUE1E,  NOM_CHAM = 'DEPL', CRITERE = 'ABSOLU',
REFERENCE = 'NON_REGRESSION', VERSION = '5.02.14',
NUME_ORDRE = 10,
NOEUD = 'N1104',  NOM_CMP = 'DRY', VALE = 0.00000E+00, PRECISION = 1.E-10))

#
TEST_RESU(
  RESU=_F(  RESULTAT = COQUE1E,  NOM_CHAM = 'DEPL', CRITERE = 'RELATIF',
REFERENCE = 'NON_REGRESSION', VERSION = '5.02.14',
NUME_ORDRE = 10,
NOEUD = 'N1104',  NOM_CMP = 'DRZ', VALE = 6.81747E-04, PRECISION = 0.021E-2))

#
#
#     N1109
###########
#
TEST_RESU(
  RESU=_F(  RESULTAT = COQUE1E,  NOM_CHAM = 'DEPL', CRITERE = 'RELATIF',
REFERENCE = 'NON_REGRESSION', VERSION = '5.02.14',
NUME_ORDRE = 10,
NOEUD = 'N1109',  NOM_CMP = 'DX',  VALE = 4.01834E-04,  PRECISION = 0.169E-2))

#
TEST_RESU(
  RESU=_F(  RESULTAT = COQUE1E,  NOM_CHAM = 'DEPL', CRITERE = 'RELATIF',
REFERENCE = 'NON_REGRESSION', VERSION = '5.02.14',
NUME_ORDRE = 10,
NOEUD = 'N1109',  NOM_CMP = 'DY',  VALE = 1.08427E-03,  PRECISION = 0.139E-2))

#
TEST_RESU(
  RESU=_F(  RESULTAT = COQUE1E,  NOM_CHAM = 'DEPL', CRITERE = 'RELATIF',
REFERENCE = 'NON_REGRESSION', VERSION = '5.02.14',
NUME_ORDRE = 10,
NOEUD = 'N1109',  NOM_CMP = 'DZ',  VALE = 6.34660E-06, PRECISION = 4.398E-2))

#
TEST_RESU(
  RESU=_F(  RESULTAT = COQUE1E,  NOM_CHAM = 'DEPL', CRITERE = 'RELATIF',
REFERENCE = 'NON_REGRESSION', VERSION = '5.02.14',
NUME_ORDRE = 10,
NOEUD = 'N1109',  NOM_CMP = 'DRX', VALE = -8.06992E-06, PRECISION = 0.423E-2))

#
TEST_RESU(
  RESU=_F(  RESULTAT = COQUE1E,  NOM_CHAM = 'DEPL', CRITERE = 'RELATIF',
REFERENCE = 'NON_REGRESSION', VERSION = '5.02.14',
NUME_ORDRE = 10,
NOEUD = 'N1109',  NOM_CMP = 'DRY', VALE = -4.85229E-05, PRECISION = 0.565E-2))

#
TEST_RESU(
  RESU=_F(  RESULTAT = COQUE1E,  NOM_CHAM = 'DEPL', CRITERE = 'RELATIF',
REFERENCE = 'NON_REGRESSION', VERSION = '5.02.14',
NUME_ORDRE = 10,
NOEUD = 'N1109',  NOM_CMP = 'DRZ', VALE = -9.39844E-05, PRECISION = 1.456E-2))

#
#
#
#
#
TEST_RESU(
  RESU=_F(  RESULTAT = COQUE1E,  NOM_CHAM = 'DEPL', CRITERE = 'RELATIF',
REFERENCE = 'NON_REGRESSION', VERSION = '5.02.14',
NUME_ORDRE = 10,
NOEUD = 'N1099',  NOM_CMP = 'DX', VALE = 4.01834E-04,  PRECISION = 0.169E-2))

#

TEST_RESU(
  RESU=_F(  RESULTAT = COQUE1E,  NOM_CHAM = 'DEPL', CRITERE = 'RELATIF',
REFERENCE = 'NON_REGRESSION', VERSION = '5.02.14',
NUME_ORDRE = 10,
NOEUD = 'N1099',  NOM_CMP = 'DY', VALE = 1.08427E-03,  PRECISION = 0.139E-2))

#
TEST_RESU(
  RESU=_F(  RESULTAT = COQUE1E,  NOM_CHAM = 'DEPL', CRITERE = 'RELATIF',
REFERENCE = 'NON_REGRESSION', VERSION = '5.02.14',
NUME_ORDRE = 10,
NOEUD = 'N1099',  NOM_CMP = 'DZ', VALE = -6.34660E-06, PRECISION = 4.398E-2))

#
TEST_RESU(
  RESU=_F(  RESULTAT = COQUE1E,  NOM_CHAM = 'DEPL', CRITERE = 'RELATIF',
REFERENCE = 'NON_REGRESSION', VERSION = '5.02.14',
NUME_ORDRE = 10,
NOEUD = 'N1099',  NOM_CMP = 'DRX', VALE = 8.06992E-06, PRECISION = 0.423E-2))

#
TEST_RESU(
  RESU=_F(  RESULTAT = COQUE1E,  NOM_CHAM = 'DEPL', CRITERE = 'RELATIF',
REFERENCE = 'NON_REGRESSION', VERSION = '5.02.14',
NUME_ORDRE = 10,
NOEUD = 'N1099',  NOM_CMP = 'DRY', VALE = 4.85229E-05, PRECISION = 0.565E-2))

#
TEST_RESU(
  RESU=_F(  RESULTAT = COQUE1E,  NOM_CHAM = 'DEPL', CRITERE = 'RELATIF',
REFERENCE = 'NON_REGRESSION', VERSION = '5.02.14',
NUME_ORDRE = 10,
NOEUD = 'N1099',  NOM_CMP = 'DRZ', VALE = -9.39844E-05, PRECISION = 1.456E-2))

#
#
#
FIN( )
#
