# TITRE BLOC DECOUPE PAR TROIS INTERFACES SE BRANCHANT SEQUENTIELLEMENT AVEC X-FEM
# ======================================================================
# COPYRIGHT (C) 1991 - 2013  EDF R&D                  WWW.CODE-ASTER.ORG
# THIS PROGRAM IS FREE SOFTWARE; YOU CAN REDISTRIBUTE IT AND/OR MODIFY
# IT UNDER THE TERMS OF THE GNU GENERAL PUBLIC LICENSE AS PUBLISHED BY
# THE FREE SOFTWARE FOUNDATION; EITHER VERSION 2 OF THE LICENSE, OR
# (AT YOUR OPTION) ANY LATER VERSION.
#
# THIS PROGRAM IS DISTRIBUTED IN THE HOPE THAT IT WILL BE USEFUL, BUT
# WITHOUT ANY WARRANTY; WITHOUT EVEN THE IMPLIED WARRANTY OF
# MERCHANTABILITY OR FITNESS FOR A PARTICULAR PURPOSE. SEE THE GNU
# GENERAL PUBLIC LICENSE FOR MORE DETAILS.
#
# YOU SHOULD HAVE RECEIVED A COPY OF THE GNU GENERAL PUBLIC LICENSE
# ALONG WITH THIS PROGRAM; IF NOT, WRITE TO EDF R&D CODE_ASTER,
#    1 AVENUE DU GENERAL DE GAULLE, 92141 CLAMART CEDEX, FRANCE.
# ======================================================================

# double jonction en F, C_PLAN, TRIA3 avec contact

DEBUT(CODE=_F(NIV_PUB_WEB='INTERNET'),DEBUG=_F(SDVERI='OUI'));

MAILLAG=LIRE_MAILLAGE(FORMAT='MED',INFO=1);


MODELEIN=AFFE_MODELE(MAILLAGE=MAILLAG,
                     AFFE=(_F(GROUP_MA=('SURF','LH','LD'),
                              PHENOMENE='MECANIQUE',
                              MODELISATION='C_PLAN')));

LN1=FORMULE(NOM_PARA=('X','Y'),VALE='Y-1-0.5*X');

FISS1=DEFI_FISS_XFEM(MAILLAGE=MAILLAG,
                    TYPE_DISCONTINUITE='INTERFACE',
                    DEFI_FISS=_F(FONC_LN=LN1),
                    INFO=1);

LN2=FORMULE(NOM_PARA=('X','Y'),VALE='X');

FISS2=DEFI_FISS_XFEM(MAILLAGE=MAILLAG,
                    TYPE_DISCONTINUITE='INTERFACE',
                    DEFI_FISS=_F(FONC_LN=LN2),
                    JONCTION=_F(FISSURE=(FISS1),POINT=(0,-5)),
                    INFO=1);

LN3=FORMULE(NOM_PARA=('X','Y'),VALE='Y');
FISS3=DEFI_FISS_XFEM(MAILLAGE=MAILLAG,
                    TYPE_DISCONTINUITE='INTERFACE',
                    DEFI_FISS=_F(FONC_LN=LN3),
                    JONCTION=_F(FISSURE=(FISS2),POINT=(5,0)),
                    INFO=1);

MODELEK=MODI_MODELE_XFEM(MODELE_IN=MODELEIN,
                         FISSURE=(FISS1,FISS2,FISS3),
                         CONTACT='OUI',
                         INFO=1);

CTXFEM = DEFI_CONTACT(MODELE         = MODELEK,
                      FORMULATION    = 'XFEM',
                      ITER_CONT_MAXI = 10,
                      REAC_GEOM='CONTROLE',
                      NB_ITER_GEOM = 1,
                      ZONE = (_F(
                                 INTEGRATION   = 'NOEUD',
                                 CONTACT_INIT  = 'OUI',
                                 GLISSIERE     = 'NON',
                                 FISS_MAIT     = FISS1,
                                 ALGO_LAGR     = 'VERSION2',
                              ),
                              _F(
                                 INTEGRATION   = 'NOEUD',
                                 CONTACT_INIT  = 'OUI',
                                 GLISSIERE     = 'NON',
                                 FISS_MAIT     = FISS2,
                                 ALGO_LAGR     = 'VERSION2',
                              ),
                             _F(
                                 INTEGRATION   = 'NOEUD',
                                 CONTACT_INIT  = 'OUI',
                                 GLISSIERE     = 'NON',
                                 FISS_MAIT     = FISS3,
                                 ALGO_LAGR     = 'VERSION2',
                              ),
                            ),
                    );


E=100.0E6
nu=0.3
ACIER=DEFI_MATERIAU(ELAS=_F(E=E,
                            NU=nu,
                            RHO=7800.0));

CHAMPMAT=AFFE_MATERIAU(MAILLAGE=MAILLAG,
                       MODELE=MODELEK,
                       AFFE=_F(TOUT=('OUI'),
                                MATER=ACIER,
                                ));

VAR1=DEFI_FONCTION(NOM_PARA='INST',
                    VALE=(0.,0.,1.,1.));

def pres_d(x) :
   if x < 0 : return 1E6
   if x > 3.5 : return 1E6
   return 0.75E6

def pres_h(x) :
   return 1E6

PRES_H = FORMULE(VALE='pres_h(X)',
                  NOM_PARA=('X'));
PRES_D = FORMULE(VALE='pres_d(Y)',
                  NOM_PARA=('Y'));

CH1=AFFE_CHAR_MECA_F(MODELE=MODELEK,
                   PRES_REP=(_F(GROUP_MA='LH',PRES = PRES_H),
                             _F(GROUP_MA='LD',PRES = PRES_D)));

CH2=AFFE_CHAR_MECA(MODELE=MODELEK,
                   DDL_IMPO=(_F(GROUP_MA='LB',DY = 0,H1Y = 0),
                             _F(GROUP_MA='LG',DX = 0,H1X = 0)));

L_INST=DEFI_LIST_REEL(DEBUT=0.0,
                      INTERVALLE=_F(JUSQU_A=1,
                                    NOMBRE=1));

UTOT1=STAT_NON_LINE(MODELE=MODELEK,
                   CHAM_MATER=CHAMPMAT,
                   CONTACT=CTXFEM,
                   EXCIT=(_F(CHARGE=CH1),
                          _F(CHARGE=CH2)),
                   COMPORTEMENT=(_F(RELATION='ELAS',
                                 GROUP_MA='SURF')),
                   NEWTON=_F(REAC_INCR=1,REAC_ITER=1),
                   INCREMENT=_F(LIST_INST=L_INST),
                   CONVERGENCE=(_F(ITER_GLOB_MAXI=20,
                                  RESI_GLOB_MAXI=1E-6)),
                   SOLVEUR=_F(METHODE='MUMPS',),
                   ARCHIVAGE=_F(CHAM_EXCLU='VARI_ELGA'),
                   INFO=1);

#-----------------------------------------------------------
#             POST-TRAITEMENT POUR LA VISUALISATION
#-----------------------------------------------------------

MA_XFEM=POST_MAIL_XFEM(MODELE=MODELEK);

MOD_VISU=AFFE_MODELE(MAILLAGE=MA_XFEM,
                     AFFE=_F(GROUP_MA='SURF',
                     PHENOMENE='MECANIQUE',
                     MODELISATION='C_PLAN'))

RES_XFEM=POST_CHAM_XFEM(MODELE_VISU   = MOD_VISU,
                        RESULTAT      = UTOT1)

#----------------------------------------------
#                   POST RELEVE
#----------------------------------------------

DEP=POST_RELEVE_T(ACTION=_F(INTITULE='DEPLE',
                                 GROUP_NO=('NFISSU'),
                                 RESULTAT=RES_XFEM,
                                 NOM_CHAM='DEPL',
                                 TOUT_CMP='OUI',NUME_ORDRE=1,
                                 OPERATION='EXTRACTION'));
DEP = CALC_TABLE(TABLE = DEP,
                 reuse = DEP,
                 ACTION =_F(OPERATION = 'EXTR',
                            NOM_PARA=('NOEUD','INST','COOR_X','COOR_Y','DX','DY')));

DEPP = CALC_TABLE(TABLE = DEP,
                     ACTION =(_F(OPERATION = 'FILTRE',
                                 NOM_PARA  = 'NOEUD',
                                 CRIT_COMP = 'REGEXP',
                                 VALE_K    = 'NP')));
DEPPGX = CALC_TABLE(TABLE = DEPP,
                      ACTION =(_F(OPERATION = 'FILTRE',
                                 NOM_PARA  = 'COOR_X',
                                 CRIT_COMP = 'GT',
                                 VALE      =  0.2),
                               _F(OPERATION = 'FILTRE',
                                 NOM_PARA  = 'COOR_Y',
                                 CRIT_COMP = 'LT',
                                 VALE      =  0.2)));
DEPPLX = CALC_TABLE(TABLE = DEPP,
                      ACTION =_F(OPERATION = 'FILTRE',
                                 NOM_PARA  = 'COOR_X',
                                 CRIT_COMP = 'LT',
                                 VALE      =  -0.2));
#DEPPGY = CALC_TABLE(TABLE = DEPP,
#                      ACTION =(_F(OPERATION = 'FILTRE',
#                                 NOM_PARA  = 'COOR_Y',
#                                 CRIT_COMP = 'GT',
#                                 VALE      =  0.2),
#                               _F(OPERATION = 'FILTRE',
#                                 NOM_PARA  = 'COOR_X',
#                                 CRIT_COMP = 'EQ',
#                                 VALE      =  0)));
DEPPLY = CALC_TABLE(TABLE = DEPP,
                      ACTION =(_F(OPERATION = 'FILTRE',
                                 NOM_PARA  = 'COOR_Y',
                                 CRIT_COMP = 'LT',
                                 VALE      =  -0.2),
                               _F(OPERATION = 'FILTRE',
                                 NOM_PARA  = 'COOR_X',
                                 CRIT_COMP = 'EQ',
                                 VALE      =  0)));

DEPM = CALC_TABLE(TABLE = DEP,
                     ACTION =_F(OPERATION = 'FILTRE',
                                 NOM_PARA  = 'NOEUD',
                                 CRIT_COMP = 'REGEXP',
                                 VALE_K    = 'NM'));

DEPMGX = CALC_TABLE(TABLE = DEPM,
                      ACTION =(_F(OPERATION = 'FILTRE',
                                 NOM_PARA  = 'COOR_X',
                                 CRIT_COMP = 'GT',
                                 VALE      =  0.02),
                               _F(OPERATION = 'FILTRE',
                                 NOM_PARA  = 'COOR_Y',
                                 CRIT_COMP = 'LT',
                                 VALE      =  0.2)));
DEPMLX = CALC_TABLE(TABLE = DEPM,
                      ACTION =_F(OPERATION = 'FILTRE',
                                 NOM_PARA  = 'COOR_X',
                                 CRIT_COMP = 'LT',
                                 VALE      =  -0.02));

DEPMGY = CALC_TABLE(TABLE = DEPM,
                      ACTION =_F(OPERATION = 'FILTRE',
                                 NOM_PARA  = 'COOR_Y',
                                 CRIT_COMP = 'GT',
                                 VALE      =  1.02));

DEPMLY = CALC_TABLE(TABLE = DEPM,
                      ACTION =(_F(OPERATION = 'FILTRE',
                                 NOM_PARA  = 'COOR_Y',
                                 CRIT_COMP = 'LT',
                                 VALE      =  0.98),
                               _F(OPERATION = 'FILTRE',
                                 NOM_PARA  = 'COOR_X',
                                 CRIT_COMP = 'EQ',
                                 VALE      =  0.),
                               _F(OPERATION = 'FILTRE',
                                 NOM_PARA  = 'COOR_Y',
                                 CRIT_COMP = 'LT',
                                 VALE      =  0.)));


# Definition des zones

depl_y = FORMULE(NOM_PARA=('DY','COOR_Y'),
                 VALE='DY+(COOR_Y+5)/100');
depl_x = FORMULE(NOM_PARA=('DX','COOR_X'),
                 VALE='DX+(COOR_X+5)/100');
DEPZON=[None]*5

DEPZON[1] = CALC_TABLE(TABLE = DEPMLX,
                    ACTION =(_F(OPERATION = 'COMB',
                                 TABLE=DEPMLY),
                             _F(OPERATION = 'OPER',
                                 NOM_PARA  = 'DY-DY',
                                 FORMULE = depl_y),
                             _F(OPERATION = 'OPER',
                                 NOM_PARA  = 'DX-DX',
                                 FORMULE = depl_x)));
DEPZON[2] = CALC_TABLE(TABLE = DEPPLX,
                    ACTION =(_F(OPERATION = 'OPER',
                                 NOM_PARA  = 'DY-DY',
                                 FORMULE = depl_y),
                             _F(OPERATION = 'OPER',
                                 NOM_PARA  = 'DX-DX',
                                 FORMULE = depl_x)));
DEPZON[3] = CALC_TABLE(TABLE = DEPMGY,
                    ACTION =(#_F(OPERATION = 'COMB',
                             #  TABLE=DEPPGY),
                             _F(OPERATION = 'COMB',
                               TABLE=DEPPGX),
                             _F(OPERATION = 'OPER',
                                 NOM_PARA  = 'DY-DY',
                                 FORMULE = depl_y),
                             _F(OPERATION = 'OPER',
                                 NOM_PARA  = 'DX-DX',
                                 FORMULE = depl_x)));
DEPZON[4] = CALC_TABLE(TABLE = DEPMGX,
                    ACTION =(_F(OPERATION = 'COMB',
                               TABLE=DEPPLY),
                             _F(OPERATION = 'OPER',
                                 NOM_PARA  = 'DY-DY',
                                 FORMULE = depl_y),
                             _F(OPERATION = 'OPER',
                                 NOM_PARA  = 'DX-DX',
                                 FORMULE = depl_x)));

#----------------------------------------------
#                   TEST TABLE
#----------------------------------------------

vale = [0,0,0,0,0]
preci = 0.05

VALE_CALC=[
 -1.089010695512E-18,
 0.030001284189239,
 0.0,
 0.024406797812131,
 -2.5562763148373E-18,
 9.6639135586686E-03,
 -1.3418967363681E-03,
 9.5521759838257E-03,
 0.020073340003959,
 0.040460890862952,
 0.0,
 0.016329868131678,
]

for j,i in enumerate([1,2,4]): #Boucle sur les zones

  IMPR_TABLE(TABLE=DEPZON[i]);

  TEST_TABLE(TABLE=DEPZON[i],
             NOM_PARA='DX-DX',
             TYPE_TEST='MIN',
             VALE_CALC=VALE_CALC[j*4+0], VALE_REFE=vale[i],
             CRITERE='ABSOLU',
             PRECISION=preci,
             REFERENCE='ANALYTIQUE',);
  TEST_TABLE(TABLE=DEPZON[i],
             NOM_PARA='DX-DX',
             TYPE_TEST='MAX',
             VALE_CALC=VALE_CALC[j*4+1], VALE_REFE=vale[i],
             CRITERE='ABSOLU',
             PRECISION=preci,
             REFERENCE='ANALYTIQUE',);
  TEST_TABLE(TABLE=DEPZON[i],
             NOM_PARA='DY-DY',
             TYPE_TEST='MIN',
             VALE_CALC=VALE_CALC[j*4+2], VALE_REFE=0,
             CRITERE='ABSOLU',
             PRECISION=preci,
             REFERENCE='ANALYTIQUE',);
  TEST_TABLE(TABLE=DEPZON[i],
             NOM_PARA='DY-DY',
             TYPE_TEST='MAX',
             VALE_CALC=VALE_CALC[j*4+3], VALE_REFE=0,
             CRITERE='ABSOLU',
             PRECISION=preci,
             REFERENCE='ANALYTIQUE',);

FIN();
