# MODIF  DATE 10/10/2012   AUTEUR COURTOIS M.COURTOIS 
# TITRE ETUDE:  ESSAI DE CISAILLEMENT CYCLIQUE DRAINE (MECA PUR)
# ssnv205a.para = tps_job 180 mem_job 512Mo ncpus 1 liste_test S
#            CONFIGURATION MANAGEMENT OF EDF VERSION
# ======================================================================
# COPYRIGHT (C) 1991 - 2012  EDF R&D                  WWW.CODE-ASTER.ORG
# THIS PROGRAM IS FREE SOFTWARE; YOU CAN REDISTRIBUTE IT AND/OR MODIFY
# IT UNDER THE TERMS OF THE GNU GENERAL PUBLIC LICENSE AS PUBLISHED BY
# THE FREE SOFTWARE FOUNDATION; EITHER VERSION 2 OF THE LICENSE, OR
# (AT YOUR OPTION) ANY LATER VERSION.
#
# THIS PROGRAM IS DISTRIBUTED IN THE HOPE THAT IT WILL BE USEFUL, BUT
# WITHOUT ANY WARRANTY; WITHOUT EVEN THE IMPLIED WARRANTY OF
# MERCHANTABILITY OR FITNESS FOR A PARTICULAR PURPOSE. SEE THE GNU
# GENERAL PUBLIC LICENSE FOR MORE DETAILS.
#
# YOU SHOULD HAVE RECEIVED A COPY OF THE GNU GENERAL PUBLIC LICENSE
# ALONG WITH THIS PROGRAM; IF NOT, WRITE TO EDF R&D CODE_ASTER,
#    1 AVENUE DU GENERAL DE GAULLE, 92141 CLAMART CEDEX, FRANCE.
# ======================================================================
#                     AVEC LA LOI DE HUJEUX
# PRESSION DE CONSOLIDATION P0 = 50KPA


DEBUT(CODE=_F(NOM='SSNV205A',NIV_PUB_WEB='INTERNET',VISU_EFICAS='NON'),DEBUG=_F(SDVERI='OUI'))

# modules mecaniques [kPa]
K=516.2E6
G=238.2E6
# =>
YOUNG = 9.*K*G /(3.*K+G)
POISSON = (3.*K-2.*G) /(6.*K+2.*G)

P0 = - 5.E4

MATE=DEFI_MATERIAU(ELAS=_F(E = YOUNG, NU = POISSON),
                   HUJEUX=_F(N=0.4,
                             BETA=24,
                             B=0.2,
                             D=2.5,
                             PHI=33,
                             ANGDIL=33,
                             PCO=-1.E6,
                             PREF=-1.E6,
                             ACYC=0.0001,
                             AMON=0.008,
                             CCYC=0.1,
                             CMON=0.2,
                             RD_ELA=0.005,
                             RI_ELA=0.001,
                             RHYS=0.05,
                             RMOB=0.9,
                             XM=1,
                             RD_CYC=0.005,
                             RI_CYC=0.001,
                             DILA  =1.,),);

TEMPS1=DEFI_LIST_REEL(DEBUT=0,
                      INTERVALLE=(_F(JUSQU_A=10,
                                     NOMBRE=20,),
                                  _F(JUSQU_A=30,
                                     NOMBRE=40,),
                                  _F (JUSQU_A=50,
                                     NOMBRE=40,),),);
TEMPS2=DEFI_LIST_REEL(DEBUT=0,
                      INTERVALLE=(_F(JUSQU_A=10,
                                     NOMBRE=50,),
                                  _F(JUSQU_A=30,
                                     NOMBRE=100,),
                                  _F (JUSQU_A=50,
                                     NOMBRE=100,),),);

DEFLIST1 =DEFI_LIST_INST(DEFI_LIST=_F(LIST_INST = TEMPS1),
                        ECHEC=_F(EVENEMENT     = 'ERREUR',
                                 ACTION        = 'DECOUPE',
                                 SUBD_METHODE  = 'MANUEL',
                                 SUBD_PAS=10,
                                 SUBD_NIVEAU=10),)

DEFLIST2 =DEFI_LIST_INST(DEFI_LIST=_F(LIST_INST = TEMPS2),
                        ECHEC=_F(EVENEMENT     = 'ERREUR',
                                 ACTION        = 'DECOUPE',
                                 SUBD_METHODE  = 'MANUEL',
                                 SUBD_PAS=10,
                                 SUBD_NIVEAU=10),)

################################################################
#ESSAI DE CISAILLEMENT CYCLIQUE A 0.2% DE DEFORMATIONS IMPOSEES#
################################################################
COEF1=DEFI_FONCTION(NOM_PARA='INST',VALE=(0,0,
                          10,-0.002,
                          30,0.002,
                          50,-0.002,),PROL_DROITE='CONSTANT',);

COEF2=DEFI_FONCTION(NOM_PARA='INST',VALE=(0,P0,
                          50,P0,),PROL_DROITE='CONSTANT',);

COEF3=DEFI_FONCTION(NOM_PARA='INST',VALE=(0,0,
                          50,0.,
                          ),PROL_DROITE='CONSTANT',);


U1=SIMU_POINT_MAT(COMP_INCR=_F(RELATION='HUJEUX',ITER_INTE_MAXI=20,
                              RESI_INTE_RELA=1E-8,
                              ITER_INTE_PAS = -5),
                  MATER=MATE,
                  INCREMENT=_F(LIST_INST=DEFLIST1,
                               NUME_INST_INIT=0,
                               INST_FIN=50.,),
                  NEWTON=_F(MATRICE='TANGENTE',
                            REAC_ITER=1,),
#                 RECH_LINEAIRE = _F(ITER_LINE_MAXI = 3),
                  CONVERGENCE=_F(RESI_GLOB_MAXI = 1.E-6,
                                 ITER_GLOB_MAXI = 10),
                  ARCHIVAGE=_F(LIST_INST=TEMPS1,),
                  SIGM_IMPOSE=_F(SIXX=COEF2,
                                 SIYY=COEF2,
                                 SIZZ=COEF2,),
                  EPSI_IMPOSE=_F(EPXY=COEF1,),
                  SIGM_INIT=_F(SIXX=P0,
                               SIYY=P0,
                               SIZZ=P0,),
                  EPSI_INIT=_F(EPXX=0,
                               EPYY=0,
                               EPZZ=0,
                               EPXY=0,
                               EPXZ=0,
                               EPYZ=0,),);

IMPR_TABLE(TABLE=U1,);

#################################################################
#ESSAI DE CISAILLEMENT CYCLIQUE A 0.02% DE DEFORMATIONS IMPOSEES#
#################################################################
COEF4=DEFI_FONCTION(NOM_PARA='INST',VALE=(0,0,
                          10,-0.0002,
                          30,0.0002,
                          50,-0.0002,),PROL_DROITE='CONSTANT',);

U2=SIMU_POINT_MAT(COMP_INCR=_F(RELATION='HUJEUX',ITER_INTE_MAXI=20,
                              RESI_INTE_RELA=1E-8,
                              ITER_INTE_PAS = -5),
                  MATER=MATE,
                  INCREMENT=_F(LIST_INST=DEFLIST1,
                               NUME_INST_INIT=0,
                               INST_FIN=50.,),
                  NEWTON=_F(MATRICE='TANGENTE',
                            REAC_ITER=1,),
#                 RECH_LINEAIRE = _F(ITER_LINE_MAXI = 3),
                  CONVERGENCE=_F(RESI_GLOB_RELA = 1.E-6,
                                 ITER_GLOB_MAXI = 10),
                  ARCHIVAGE=_F(LIST_INST=TEMPS1,),
                  SIGM_IMPOSE=_F(SIXX=COEF2,
                                 SIYY=COEF2,
                                 SIZZ=COEF2,),
                  EPSI_IMPOSE=_F(EPXY=COEF4,),
                  SIGM_INIT=_F(SIXX=P0,
                               SIYY=P0,
                               SIZZ=P0,),
                  EPSI_INIT=_F(EPXX=0,
                               EPYY=0,
                               EPZZ=0,
                               EPXY=0,
                               EPXZ=0,
                               EPYZ=0,),);

IMPR_TABLE(TABLE=U2,);

##################################################################
#ESSAI DE CISAILLEMENT CYCLIQUE A 0.002% DE DEFORMATIONS IMPOSEES#
##################################################################
COEF5=DEFI_FONCTION(NOM_PARA='INST',VALE=(0,0,
                          10,-2.E-5,
                          30,2.E-5,
                          50,-2.E-5,),PROL_DROITE='CONSTANT',);

U3=SIMU_POINT_MAT(COMP_INCR=_F(RELATION='HUJEUX',ITER_INTE_MAXI=20,
                              RESI_INTE_RELA=1E-8,
                              ITER_INTE_PAS = -5),
                  MATER=MATE,
                  INCREMENT=_F(LIST_INST=DEFLIST2,
                               NUME_INST_INIT=0,
                               INST_FIN=50.,),
                  NEWTON=_F(MATRICE='TANGENTE',
                            REAC_ITER=1,),
#                 RECH_LINEAIRE = _F(ITER_LINE_MAXI = 3),
                  CONVERGENCE=_F(RESI_GLOB_RELA = 1.E-6,
                                 ITER_GLOB_MAXI = 10),
                  ARCHIVAGE=_F(LIST_INST=TEMPS2,),
                  SIGM_IMPOSE=_F(SIXX=COEF2,
                                 SIYY=COEF2,
                                 SIZZ=COEF2,),
                  EPSI_IMPOSE=_F(EPXY=COEF5,),
                  SIGM_INIT=_F(SIXX=P0,
                               SIYY=P0,
                               SIZZ=P0,),
                  EPSI_INIT=_F(EPXX=0,
                               EPYY=0,
                               EPZZ=0,
                               EPXY=0,
                               EPXZ=0,
                               EPYZ=0,),);

IMPR_TABLE(TABLE=U3,);


################################################################
#ESSAI DE CISAILLEMENT CYCLIQUE A 0.2% DE DEFORMATIONS IMPOSEES#
################################################################
# TEST DE DE LA COMPOSANTE XY DES CONTRAINTES PAR RAPPORT AUX REFERENCES LAWYER
TEST_TABLE(CRITERE='RELATIF',
           REFERENCE='SOURCE_EXTERNE',
           PRECISION=1.E-2,
           VALE_CALC=-1.94891508E+04,
           VALE_REFE=-1.9590509999999998E4,
           NOM_PARA='SIXY',
           TABLE=U1,
           FILTRE=_F(CRITERE='ABSOLU',
                     PRECISION=9.0000000000000006E-05,
                     NOM_PARA='INST',
                     VALE=5.0,),
           )

TEST_TABLE(CRITERE='RELATIF',
           REFERENCE='SOURCE_EXTERNE',
           PRECISION=1.E-2,
           VALE_CALC=-2.42728743E+04,
           VALE_REFE=-2.4319540000000001E4,
           NOM_PARA='SIXY',
           TABLE=U1,
           FILTRE=_F(CRITERE='ABSOLU',
                     PRECISION=9.0000000000000006E-05,
                     NOM_PARA='INST',
                     VALE=10.0,),
           )

TEST_TABLE(CRITERE='RELATIF',
           REFERENCE='SOURCE_EXTERNE',
           PRECISION=1.E-2,
           VALE_CALC= 1.47712321E+04,
           VALE_REFE=1.479332E4,
           NOM_PARA='SIXY',
           TABLE=U1,
           FILTRE=_F(CRITERE='ABSOLU',
                     PRECISION=9.0000000000000006E-05,
                     NOM_PARA='INST',
                     VALE=20.0,),
           )

TEST_TABLE(CRITERE='RELATIF',
           REFERENCE='SOURCE_EXTERNE',
           PRECISION=1.E-2,
           VALE_CALC= 2.43473430E+04,
           VALE_REFE=2.4310029999999999E4,
           NOM_PARA='SIXY',
           TABLE=U1,
           FILTRE=_F(CRITERE='ABSOLU',
                     PRECISION=9.0000000000000006E-05,
                     NOM_PARA='INST',
                     VALE=30.0,),
           )

TEST_TABLE(CRITERE='RELATIF',
           REFERENCE='SOURCE_EXTERNE',
           PRECISION=0.02,
           VALE_CALC=-1.47877716E+04,
           VALE_REFE=-1.488693E4,
           NOM_PARA='SIXY',
           TABLE=U1,
           FILTRE=_F(CRITERE='ABSOLU',
                     PRECISION=9.0000000000000006E-05,
                     NOM_PARA='INST',
                     VALE=40.0,),
           )

TEST_TABLE(CRITERE='RELATIF',
           REFERENCE='SOURCE_EXTERNE',
           PRECISION=1.E-2,
           VALE_CALC=-2.43810176E+04,
           VALE_REFE=-2.4426200000000001E4,
           NOM_PARA='SIXY',
           TABLE=U1,
           FILTRE=_F(CRITERE='ABSOLU',
                     PRECISION=9.0000000000000006E-05,
                     NOM_PARA='INST',
                     VALE=50.0,),
           )

# TEST DE LA DEFORMATION VOLUMIQUE PLASTIQUE PAR RAPPORT AUX REFERENCES LAWYER
TEST_TABLE(CRITERE='RELATIF',
           REFERENCE='SOURCE_EXTERNE',
           PRECISION=1.E-2,
           VALE_CALC=-1.33327176E-04,
           VALE_REFE=-1.3233750000000001E-4,
           NOM_PARA='V23',
           TABLE=U1,
           FILTRE=_F(CRITERE='ABSOLU',
                     PRECISION=9.0000000000000006E-05,
                     NOM_PARA='INST',
                     VALE=5.0,),
           )

TEST_TABLE(CRITERE='RELATIF',
           REFERENCE='SOURCE_EXTERNE',
           PRECISION=1.E-2,
           VALE_CALC=-2.37679850E-04,
           VALE_REFE=-2.357258E-4,
           NOM_PARA='V23',
           TABLE=U1,
           FILTRE=_F(CRITERE='ABSOLU',
                     PRECISION=9.0000000000000006E-05,
                     NOM_PARA='INST',
                     VALE=10.0,),
           )

TEST_TABLE(CRITERE='RELATIF',
           REFERENCE='SOURCE_EXTERNE',
           PRECISION=1.E-2,
           VALE_CALC=-6.96890173E-04,
           VALE_REFE=-6.9678869999999996E-4,
           NOM_PARA='V23',
           TABLE=U1,
           FILTRE=_F(CRITERE='ABSOLU',
                     PRECISION=9.0000000000000006E-05,
                     NOM_PARA='INST',
                     VALE=20.0,),
           )

TEST_TABLE(CRITERE='RELATIF',
           REFERENCE='SOURCE_EXTERNE',
           PRECISION=1.E-2,
           VALE_CALC=-9.87507029E-04,
           VALE_REFE=-9.885072999999999E-4,
           NOM_PARA='V23',
           TABLE=U1,
           FILTRE=_F(CRITERE='ABSOLU',
                     PRECISION=9.0000000000000006E-05,
                     NOM_PARA='INST',
                     VALE=30.0,),
           )

TEST_TABLE(CRITERE='RELATIF',
           REFERENCE='SOURCE_EXTERNE',
           PRECISION=1.E-2,
           VALE_CALC=-1.44668959E-03,
           VALE_REFE=-1.4475460000000001E-3,
           NOM_PARA='V23',
           TABLE=U1,
           FILTRE=_F(CRITERE='ABSOLU',
                     PRECISION=9.0000000000000006E-05,
                     NOM_PARA='INST',
                     VALE=40.0,),
           )

TEST_TABLE(CRITERE='RELATIF',
           REFERENCE='SOURCE_EXTERNE',
           PRECISION=1.E-2,
           VALE_CALC=-1.73611240E-03,
           VALE_REFE=-1.734764E-3,
           NOM_PARA='V23',
           TABLE=U1,
           FILTRE=_F(CRITERE='ABSOLU',
                     PRECISION=9.0000000000000006E-05,
                     NOM_PARA='INST',
                     VALE=50.0,),
           )

#################################################################
#ESSAI DE CISAILLEMENT CYCLIQUE A 0.02% DE DEFORMATIONS IMPOSEES#
#################################################################
# TEST DE DE LA COMPOSANTE XY DES CONTRAINTES PAR RAPPORT AUX REFERENCES LAWYER
TEST_TABLE(CRITERE='RELATIF',
           REFERENCE='SOURCE_EXTERNE',
           PRECISION=1.E-2,
           VALE_CALC=-7.17744169E+03,
           VALE_REFE=-7207.0,
           NOM_PARA='SIXY',
           TABLE=U2,
           FILTRE=_F(CRITERE='ABSOLU',
                     PRECISION=9.0000000000000006E-05,
                     NOM_PARA='INST',
                     VALE=5.0,),
           )

TEST_TABLE(CRITERE='RELATIF',
           REFERENCE='SOURCE_EXTERNE',
           PRECISION=1.E-2,
           VALE_CALC=-1.01456705E+04,
           VALE_REFE=-1.0170E4,
           NOM_PARA='SIXY',
           TABLE=U2,
           FILTRE=_F(CRITERE='ABSOLU',
                     PRECISION=9.0000000000000006E-05,
                     NOM_PARA='INST',
                     VALE=10.0,),
           )

TEST_TABLE(CRITERE='RELATIF',
           REFERENCE='SOURCE_EXTERNE',
           PRECISION=1.E-2,
           VALE_CALC= 4.21143348E+03,
           VALE_REFE=4223.0,
           NOM_PARA='SIXY',
           TABLE=U2,
           FILTRE=_F(CRITERE='ABSOLU',
                     PRECISION=9.0000000000000006E-05,
                     NOM_PARA='INST',
                     VALE=20.0,),
           )

TEST_TABLE(CRITERE='RELATIF',
           REFERENCE='SOURCE_EXTERNE',
           PRECISION=1.E-2,
           VALE_CALC= 1.01460887E+04,
           VALE_REFE=1.0150E4,
           NOM_PARA='SIXY',
           TABLE=U2,
           FILTRE=_F(CRITERE='ABSOLU',
                     PRECISION=9.0000000000000006E-05,
                     NOM_PARA='INST',
                     VALE=30.0,),
           )

TEST_TABLE(CRITERE='RELATIF',
           REFERENCE='SOURCE_EXTERNE',
           PRECISION=0.02,
           VALE_CALC=-4.21070380E+03,
           VALE_REFE=-4243.0,
           NOM_PARA='SIXY',
           TABLE=U2,
           FILTRE=_F(CRITERE='ABSOLU',
                     PRECISION=9.0000000000000006E-05,
                     NOM_PARA='INST',
                     VALE=40.0,),
           )

TEST_TABLE(CRITERE='RELATIF',
           REFERENCE='SOURCE_EXTERNE',
           PRECISION=1.E-2,
           VALE_CALC=-1.01464375E+04,
           VALE_REFE=-1.0170E4,
           NOM_PARA='SIXY',
           TABLE=U2,
           FILTRE=_F(CRITERE='ABSOLU',
                     PRECISION=9.0000000000000006E-05,
                     NOM_PARA='INST',
                     VALE=50.0,),
           )

# TEST DE LA DEFORMATION VOLUMIQUE PLASTIQUE PAR RAPPORT AUX REFERENCES LAWYER
TEST_TABLE(CRITERE='RELATIF',
           REFERENCE='SOURCE_EXTERNE',
           PRECISION=0.029999999999999999,
           VALE_CALC=-3.62984473E-06,
           VALE_REFE=-3.5930000000000002E-06,
           NOM_PARA='V23',
           TABLE=U2,
           FILTRE=_F(CRITERE='ABSOLU',
                     PRECISION=9.0000000000000006E-05,
                     NOM_PARA='INST',
                     VALE=5.0,),
           )

TEST_TABLE(CRITERE='RELATIF',
           REFERENCE='SOURCE_EXTERNE',
           PRECISION=1.E-2,
           VALE_CALC=-1.40288212E-05,
           VALE_REFE=-1.402E-05,
           NOM_PARA='V23',
           TABLE=U2,
           FILTRE=_F(CRITERE='ABSOLU',
                     PRECISION=9.0000000000000006E-05,
                     NOM_PARA='INST',
                     VALE=10.0,),
           )

TEST_TABLE(CRITERE='RELATIF',
           REFERENCE='SOURCE_EXTERNE',
           PRECISION=1.E-2,
           VALE_CALC=-2.26671163E-05,
           VALE_REFE=-2.2650000000000002E-05,
           NOM_PARA='V23',
           TABLE=U2,
           FILTRE=_F(CRITERE='ABSOLU',
                     PRECISION=9.0000000000000006E-05,
                     NOM_PARA='INST',
                     VALE=20.0,),
           )

TEST_TABLE(CRITERE='RELATIF',
           REFERENCE='SOURCE_EXTERNE',
           PRECISION=1.E-2,
           VALE_CALC=-4.48705660E-05,
           VALE_REFE=-4.4919999999999997E-05,
           NOM_PARA='V23',
           TABLE=U2,
           FILTRE=_F(CRITERE='ABSOLU',
                     PRECISION=9.0000000000000006E-05,
                     NOM_PARA='INST',
                     VALE=30.0,),
           )

TEST_TABLE(CRITERE='RELATIF',
           REFERENCE='SOURCE_EXTERNE',
           PRECISION=1.E-2,
           VALE_CALC=-5.35105277E-05,
           VALE_REFE=-5.3539999999999999E-05,
           NOM_PARA='V23',
           TABLE=U2,
           FILTRE=_F(CRITERE='ABSOLU',
                     PRECISION=9.0000000000000006E-05,
                     NOM_PARA='INST',
                     VALE=40.0,),
           )

TEST_TABLE(CRITERE='RELATIF',
           REFERENCE='SOURCE_EXTERNE',
           PRECISION=1.E-2,
           VALE_CALC=-7.57107577E-05,
           VALE_REFE=-7.5779999999999996E-05,
           NOM_PARA='V23',
           TABLE=U2,
           FILTRE=_F(CRITERE='ABSOLU',
                     PRECISION=9.0000000000000006E-05,
                     NOM_PARA='INST',
                     VALE=50.0,),
           )

##################################################################
#ESSAI DE CISAILLEMENT CYCLIQUE A 0.002% DE DEFORMATIONS IMPOSEES#
##################################################################
# TEST DE DE LA COMPOSANTE XY DES CONTRAINTES PAR RAPPORT AUX REFERENCES LAWYER
TEST_TABLE(CRITERE='RELATIF',
           REFERENCE='SOURCE_EXTERNE',
           PRECISION=1.E-2,
           VALE_CALC=-1.25932434E+03,
           VALE_REFE=-1260.0,
           NOM_PARA='SIXY',
           TABLE=U3,
           FILTRE=_F(CRITERE='ABSOLU',
                     PRECISION=9.0000000000000006E-05,
                     NOM_PARA='INST',
                     VALE=5.0,),
           )

TEST_TABLE(CRITERE='RELATIF',
           REFERENCE='SOURCE_EXTERNE',
           PRECISION=1.E-2,
           VALE_CALC=-2.46279988E+03,
           VALE_REFE=-2465.0,
           NOM_PARA='SIXY',
           TABLE=U3,
           FILTRE=_F(CRITERE='ABSOLU',
                     PRECISION=9.0000000000000006E-05,
                     NOM_PARA='INST',
                     VALE=10.0,),
           )

TEST_TABLE(CRITERE='RELATIF',
           REFERENCE='SOURCE_EXTERNE',
           PRECISION=0.050000000000000003,
           VALE_CALC=55.925887376,
           VALE_REFE=54.030000000000001,
           NOM_PARA='SIXY',
           TABLE=U3,
           FILTRE=_F(CRITERE='ABSOLU',
                     PRECISION=9.0000000000000006E-05,
                     NOM_PARA='INST',
                     VALE=20.0,),
           )

TEST_TABLE(CRITERE='RELATIF',
           REFERENCE='SOURCE_EXTERNE',
           PRECISION=1.E-2,
           VALE_CALC= 2.46686355E+03,
           VALE_REFE=2463.0,
           NOM_PARA='SIXY',
           TABLE=U3,
           FILTRE=_F(CRITERE='ABSOLU',
                     PRECISION=9.0000000000000006E-05,
                     NOM_PARA='INST',
                     VALE=30.0,),
           )

TEST_TABLE(CRITERE='RELATIF',
           REFERENCE='SOURCE_EXTERNE',
           PRECISION=0.10000000000000001,
           VALE_CALC=-51.861989627,
           VALE_REFE=-55.780000000000001,
           NOM_PARA='SIXY',
           TABLE=U3,
           FILTRE=_F(CRITERE='ABSOLU',
                     PRECISION=9.0000000000000006E-05,
                     NOM_PARA='INST',
                     VALE=40.0,),
           )

TEST_TABLE(CRITERE='RELATIF',
           REFERENCE='SOURCE_EXTERNE',
           PRECISION=1.E-2,
           VALE_CALC=-2.45960850E+03,
           VALE_REFE=-2465.0,
           NOM_PARA='SIXY',
           TABLE=U3,
           FILTRE=_F(CRITERE='ABSOLU',
                     PRECISION=9.0000000000000006E-05,
                     NOM_PARA='INST',
                     VALE=50.0,),
           )

# TEST DE LA DEFORMATION VOLUMIQUE PLASTIQUE PAR RAPPORT AUX REFERENCES LAWYER

TEST_TABLE(CRITERE='RELATIF',
           REFERENCE='SOURCE_EXTERNE',
           PRECISION=0.27000000000000002,
           VALE_CALC=-2.09324532E-09,
           VALE_REFE=-1.8280000000000001E-09,
           NOM_PARA='V23',
           TABLE=U3,
           FILTRE=_F(CRITERE='ABSOLU',
                     PRECISION=9.0000000000000006E-05,
                     NOM_PARA='INST',
                     VALE=10.0,),
           )

TEST_TABLE(CRITERE='RELATIF',
           REFERENCE='SOURCE_EXTERNE',
           PRECISION=0.27000000000000002,
           VALE_CALC=-2.09324532E-09,
           VALE_REFE=-1.8280000000000001E-09,
           NOM_PARA='V23',
           TABLE=U3,
           FILTRE=_F(CRITERE='ABSOLU',
                     PRECISION=9.0000000000000006E-05,
                     NOM_PARA='INST',
                     VALE=20.0,),
           )

TEST_TABLE(CRITERE='RELATIF',
           REFERENCE='SOURCE_EXTERNE',
           PRECISION=0.10000000000000001,
           VALE_CALC=-6.01857891E-09,
           VALE_REFE=-5.7399999999999996E-09,
           NOM_PARA='V23',
           TABLE=U3,
           FILTRE=_F(CRITERE='ABSOLU',
                     PRECISION=9.0000000000000006E-05,
                     NOM_PARA='INST',
                     VALE=30.0,),
           )

TEST_TABLE(CRITERE='RELATIF',
           REFERENCE='SOURCE_EXTERNE',
           PRECISION=0.10000000000000001,
           VALE_CALC=-6.01857891E-09,
           VALE_REFE=-5.7399999999999996E-09,
           NOM_PARA='V23',
           TABLE=U3,
           FILTRE=_F(CRITERE='ABSOLU',
                     PRECISION=9.0000000000000006E-05,
                     NOM_PARA='INST',
                     VALE=40.0,),
           )

TEST_TABLE(CRITERE='RELATIF',
           REFERENCE='SOURCE_EXTERNE',
           PRECISION=0.080000000000000002,
           VALE_CALC=-1.01142345E-08,
           VALE_REFE=-9.6509999999999999E-09,
           NOM_PARA='V23',
           TABLE=U3,
           FILTRE=_F(CRITERE='ABSOLU',
                     PRECISION=9.0000000000000006E-05,
                     NOM_PARA='INST',
                     VALE=50.0,),
           )

FIN();
