# ======================================================================
# COPYRIGHT (C) 1991 - 2016  EDF R&D                  WWW.CODE-ASTER.ORG
# THIS PROGRAM IS FREE SOFTWARE; YOU CAN REDISTRIBUTE IT AND/OR MODIFY
# IT UNDER THE TERMS OF THE GNU GENERAL PUBLIC LICENSE AS PUBLISHED BY
# THE FREE SOFTWARE FOUNDATION; EITHER VERSION 2 OF THE LICENSE, OR
# (AT YOUR OPTION) ANY LATER VERSION.
#
# THIS PROGRAM IS DISTRIBUTED IN THE HOPE THAT IT WILL BE USEFUL, BUT
# WITHOUT ANY WARRANTY; WITHOUT EVEN THE IMPLIED WARRANTY OF
# MERCHANTABILITY OR FITNESS FOR A PARTICULAR PURPOSE. SEE THE GNU
# GENERAL PUBLIC LICENSE FOR MORE DETAILS.
#
# YOU SHOULD HAVE RECEIVED A COPY OF THE GNU GENERAL PUBLIC LICENSE
# ALONG WITH THIS PROGRAM; IF NOT, WRITE TO EDF R&D CODE_ASTER,
#    1 AVENUE DU GENERAL DE GAULLE, 92141 CLAMART CEDEX, FRANCE.
# ======================================================================

DEBUT(CODE=_F(NIV_PUB_WEB='INTERNET',VISU_EFICAS='NON'),DEBUG=_F(SDVERI='OUI'))

# MODELISATION C : X-FEM FISSURE NON-COINCIDENTE PUR - TRACTION
# LE FOND DE FISSURE EST AU CENTRE DES ELEMENTS
# ON TESTE : 
# - UNE PRESSION CONSTANTE SUR LES FACES SUP ET FIN
# - UNE PRESSION CONSTANTE SUR LES LEVRES
# - UNE PRESSION FONCTION SUR LES LEVRES

#----------------------------------------------
#                MAILLAGE : hexa_5_31_51.mgib
#----------------------------------------------

MAILLAG1=LIRE_MAILLAGE(FORMAT='MED',)

MAILLAG1=DEFI_GROUP(reuse =MAILLAG1,
                    MAILLAGE=MAILLAG1,
                    CREA_GROUP_NO=_F(GROUP_MA='VOL',),);

MAILLAG1=DEFI_GROUP(reuse =MAILLAG1,
                    MAILLAGE=MAILLAG1,
                    CREA_GROUP_NO=_F(GROUP_MA='SURFSUP',),
                    );

#----------------------------------------------
#                   MODELE ET FISSURE
#----------------------------------------------

MODELEIN=AFFE_MODELE(MAILLAGE=MAILLAG1,
                     AFFE=(_F(GROUP_MA=('VOL',),
                              PHENOMENE='MECANIQUE',
                              MODELISATION='3D',),
                           _F(GROUP_MA=('SURFINF','SURFSUP',),
                              PHENOMENE='MECANIQUE',
                              MODELISATION='3D',),),);

MAILLAG1=MODI_MAILLAGE(reuse =MAILLAG1,
                       MAILLAGE=MAILLAG1,
                       ORIE_PEAU_3D=_F(GROUP_MA=('SURFSUP','SURFINF',),),
                       );

LN=FORMULE(NOM_PARA=('X','Y','Z'),VALE='Z-15.');
LT=FORMULE(NOM_PARA=('X','Y','Z'),VALE='-Y+5.');

FISS=DEFI_FISS_XFEM(MAILLAGE=MAILLAG1,
                    DEFI_FISS=_F(FONC_LT=LT,FONC_LN=LN,),
                    INFO=1,
                    );

MODELEK=MODI_MODELE_XFEM(MODELE_IN=MODELEIN,FISSURE=FISS,INFO=1,);


#----------------------------------------------
#                   MATERIAU
#----------------------------------------------

E=205000.0E6
nu=0.
rho=7800.
ACIER=DEFI_MATERIAU(ELAS=_F(E=E,NU=nu,RHO=rho,),);

CHAMPMA1=AFFE_MATERIAU(MAILLAGE=MAILLAG1,
                       MODELE=MODELEK,
                       AFFE=_F(TOUT = 'OUI',
                                MATER=ACIER,
                                ),
                             );

#----------------------------------------------
#                   CHARGEMENTS
#----------------------------------------------

PRES=-1.E6
CHB=AFFE_CHAR_MECA(MODELE=MODELEK,
                   LIAISON_DDL=(_F(NOEUD=('N4031','N3876',),
                                   DDL=('DX','DX',),
                                   COEF_MULT=(1.0,1.0),
                                   COEF_IMPO=0.0,),
                                _F(NOEUD=('N4031','N3876',),
                                   DDL=('DY','DY',),
                                   COEF_MULT=(1.0,1.0),
                                   COEF_IMPO=0.0,),
                                _F(NOEUD=('N4031','N3876',),
                                   DDL=('DZ','DZ',),
                                   COEF_MULT=(1.0,1.0),
                                   COEF_IMPO=0.0,),
                                _F(NOEUD=('N3886','N4041',),
                                   DDL=('DX','DX',),
                                   COEF_MULT=(1.0,1.0),
                                   COEF_IMPO=0.0,),
                                _F(NOEUD=('N3886','N4041',),
                                   DDL=('DZ','DZ',),
                                   COEF_MULT=(1.0,1.0),
                                   COEF_IMPO=0.0,),
                                _F(NOEUD=('N9768','N9767',),
                                   DDL=('DZ','DZ',),
                                   COEF_MULT=(1.0,1.0),
                                   COEF_IMPO=0.0,),
                             ),)


CH1=AFFE_CHAR_MECA(MODELE=MODELEK,
                PRES_REP=_F(GROUP_MA=('SURFSUP','SURFINF'),PRES=PRES))

#                   3) PRESSION CONSTANTE SUR LES LEVRES
CHPRES=AFFE_CHAR_MECA(MODELE=MODELEK,PRES_REP=_F(FISSURE=FISS,PRES=1.e6))

#                   4) PRESSION FONCTION SUR LES LEVRES
PRESF=FORMULE(NOM_PARA=('X','Y','Z'),VALE='1.e6*(1.-X)')
CHPRESF=AFFE_CHAR_MECA_F(MODELE=MODELEK,PRES_REP=_F(FISSURE=FISS,PRES=PRESF))


#----------------------------------------------
#                   RESOLUTION
#----------------------------------------------

L_INS1=DEFI_LIST_REEL(DEBUT=0.0,INTERVALLE=_F(JUSQU_A=1.0,NOMBRE=1))

UTOT1x=MECA_STATIQUE(MODELE=MODELEK,
                   CHAM_MATER=CHAMPMA1,
                   EXCIT=(
                          _F(CHARGE=CHB),
                          _F(CHARGE=CH1),
                          ),
                   ); 

UTOT2x=MECA_STATIQUE(MODELE=MODELEK,
                   CHAM_MATER=CHAMPMA1,
                   EXCIT=(
                          _F(CHARGE=CHB),
                          _F(CHARGE=CHPRES),
                          ),
                   ); 

UTOT3x=MECA_STATIQUE(MODELE=MODELEK,
                   CHAM_MATER=CHAMPMA1,
                   EXCIT=(
                          _F(CHARGE=CHB),
                          _F(CHARGE=CHPRESF),
                          ),
                   ); 

#------------------------------------------------------------------------
# POST-TRAITEMENT : CALCUL DES SIFS PAR LA METHODE ENERGETIQUE AVEC X-FEM
#------------------------------------------------------------------------

# TEST AVEC PLUSIEURS COURONNES
RI=[2. , 0.666 , 1. , 1. , 1. , 2.1]
RS=[4. , 1.666 , 2. , 3. , 4. , 3.9]

nbc=len(RI)
SIF1   = [None]*nbc
SIF1_R = [None]*nbc
SIF2   = [None]*nbc

for i in range(0,nbc) :

   SIF1[i]=CALC_G(RESULTAT=UTOT1x,
                 OPTION='CALC_K_G',
                 THETA=_F(FISSURE=FISS,
                          R_INF=RI[i],
                          R_SUP=RS[i],),
                 LISSAGE=_F(LISSAGE_THETA='LAGRANGE',
                            LISSAGE_G='LAGRANGE',),
                 INFO=2,);

   IMPR_TABLE(TABLE=SIF1[i],);

   SIF2[i]=CALC_G(RESULTAT=UTOT2x,
                  OPTION='CALC_K_G',
                  LISSAGE = _F(LISSAGE_THETA='LAGRANGE',
                               LISSAGE_G='LAGRANGE',),
                  THETA=_F(R_INF=RI[i],
                           R_SUP=RS[i],
                  FISSURE=FISS,),);

   IMPR_TABLE(TABLE=SIF2[i],);

# test sans R_INF et R_SUP
SIF1_S=CALC_G(RESULTAT=UTOT1x,
              OPTION='CALC_K_G',
              THETA=_F(FISSURE=FISS,),
              LISSAGE=_F(LISSAGE_THETA='LAGRANGE',
                         LISSAGE_G='LAGRANGE',),
              INFO=2,);

IMPR_TABLE(TABLE=SIF1_S,);

# test de LAGRANGE_NO_NO
SIF1_N=CALC_G(RESULTAT=UTOT1x,
              OPTION='CALC_K_G',
              THETA=_F(FISSURE=FISS,
                       R_INF=RI[0],
                       R_SUP=RS[0],),
              LISSAGE=_F(LISSAGE_THETA='LAGRANGE',
                         LISSAGE_G='LAGRANGE_NO_NO',),
              )

IMPR_TABLE(TABLE=SIF1_N);

# unique test de CALC_G, option CALC_G avec pression sur levres
G2=CALC_G(RESULTAT=UTOT2x,
          THETA=_F(FISSURE=FISS,
                   R_INF=RI[0],
                   R_SUP=RS[0],),
          LISSAGE=_F(LISSAGE_THETA='LAGRANGE',
                     LISSAGE_G='LAGRANGE',),
          )

IMPR_TABLE(TABLE=G2)



# SOLUTION ANALYTIQUE (chaboche p.53) (chargement 1 et 3)
a=5
b=10
coef=(pi*a)/(2.*b)
fab=sqrt(tan(coef)/coef)*(0.752+0.37*(1.-sin(coef))**3+2.02*a/b)/cos(coef)
K1REF=-PRES*sqrt(pi*a)*fab

Gref = (1-nu**2)/E * K1REF**2

# POUR LE CHARGEMENT 4, AUTRE ASTER (REFERENCE : MODELISATION A)
# AU POINT INITIAL DU FOND DE FISSURE
K1REF4I=5.99e6
# AU POINT FINAL DU FOND DE FISSURE
K1REF4F=4.52e6

VAL_CALC = [ 1.1156241056919E+07   ,
             1.1143395136662E+07   ,
             1.0829769508348E+07    ,
             1.0821883515721E+07   ,
             1.1156280236897E+07   ,
             1.1144132206779E+07   ,
             6.1207620462604E+06   ,
             4.7040885209406E+06   ,
             1.1156023806024E+07    ,
             1.1143148454183E+07   ,
             1.086419871929E+07   ,
             1.0856425779511E+07    ,
             1.1156058872356E+07   ,
             1.1143881859518E+07   ,
             6.1427246527363E+06   ,
             4.7164796304346E+06   ,
             1.1154087164974E+07   ,
             1.1141227939714E+07   ,
             1.0823359807758E+07   ,
             1.081548948384E+07   ,
             1.1154124388384E+07   ,
             1.1141963228035E+07   ,
             6.1183637370969E+06   ,
             4.7001051519402E+06   ,
             1.1155053106816E+07    ,
             1.1142200211995E+07   ,
             1.0826407404872E+07   ,
             1.081852901975E+07   ,
             1.1155091082855E+07   ,
             1.1142936197818E+07   ,
             6.1195202223569E+06    ,
             4.7019818219582E+06   ,
             1.1155523092937E+07   ,
             1.1142672734346E+07   ,
             1.0827632941485E+07   ,
             1.0819752171761E+07   ,
             1.1155561617393E+07   ,
             1.1143409203864E+07   ,
             6.1199626098726E+06   ,
             4.7027607312738E+06   ,
             1.1156256731247E+07   ,
             1.1143410983399E+07   ,
             1.0829807386314E+07   ,
             1.0821921328884E+07    ,
             1.1156295595315E+07   ,
             1.114414771639E+07   ,
             6.1207759074264E+06   ,
             4.7041121701795E+06   ]

for i in range(0,nbc) :
   TEST_TABLE(TABLE=SIF1[i],
              NOM_PARA='K1',
              TYPE_TEST='MAX',
              VALE_CALC=VAL_CALC[i*8+0], VALE_REFE=K1REF,
              CRITERE='RELATIF',
              PRECISION=0.04,
              REFERENCE='ANALYTIQUE',);

   TEST_TABLE(TABLE=SIF1[i],
              NOM_PARA='K1',
              TYPE_TEST='MIN',
              VALE_CALC=VAL_CALC[i*8+1], VALE_REFE=K1REF,
              CRITERE='RELATIF',
              PRECISION=0.04,
              REFERENCE='ANALYTIQUE',);

   TEST_TABLE(TABLE=SIF2[i],
              NOM_PARA='K1',
              TYPE_TEST='MAX', 
              VALE_CALC=VAL_CALC[i*8+4], VALE_REFE=K1REF,
              CRITERE='RELATIF',
              PRECISION=0.04,
              REFERENCE='ANALYTIQUE',);

   TEST_TABLE(TABLE=SIF2[i],
              NOM_PARA='K1',
              TYPE_TEST='MIN',  
              VALE_CALC=VAL_CALC[i*8+5], VALE_REFE=K1REF,
              CRITERE='RELATIF',
              PRECISION=0.04,
              REFERENCE='ANALYTIQUE',);

TEST_TABLE(CRITERE='RELATIF',
           REFERENCE='ANALYTIQUE',
           PRECISION=0.040000000000000001,
           VALE_CALC= 1.1157721971763E+07,
           VALE_REFE=1.1202664084020415E7,
           NOM_PARA='K1',
           TYPE_TEST='MAX',
           TABLE=SIF1_S,)

TEST_TABLE(CRITERE='RELATIF',
           REFERENCE='ANALYTIQUE',
           PRECISION=0.040000000000000001,
           VALE_CALC= 1.1144834869605E+07,
           VALE_REFE=1.1202664084020415E7,
           NOM_PARA='K1',
           TYPE_TEST='MIN',
           TABLE=SIF1_S,)

TEST_TABLE(CRITERE='RELATIF',
           REFERENCE='ANALYTIQUE',
           PRECISION=0.040000000000000001,
           VALE_CALC= 1.1158810303318E+07,
           VALE_REFE=1.1202664084020415E7,
           NOM_PARA='K1',
           TYPE_TEST='MAX',
           TABLE=SIF1_N,)

TEST_TABLE(CRITERE='RELATIF',
           REFERENCE='ANALYTIQUE',
           PRECISION=0.040000000000000001,
           VALE_CALC= 1.1140844087096E+07,
           VALE_REFE=1.1202664084020415E7,
           NOM_PARA='K1',
           TYPE_TEST='MIN',
           TABLE=SIF1_N,)

TEST_TABLE(CRITERE='RELATIF',
           REFERENCE='ANALYTIQUE',
           PRECISION=0.080000000000000002,
           VALE_CALC=610.12877051734,
           VALE_REFE=612.19357355805357,
           NOM_PARA='G',
           TYPE_TEST='MAX',
           TABLE=G2,)

TEST_TABLE(CRITERE='RELATIF',
           REFERENCE='ANALYTIQUE',
           PRECISION=0.080000000000000002,
           VALE_CALC=604.61354903076,
           VALE_REFE=612.19357355805357,
           NOM_PARA='G',
           TYPE_TEST='MIN',
           TABLE=G2,)

#----------------------------------------------------------------------
# POST-TRAITEMENT : CALCUL DES SIFS AVEC POST_K1_K2_K3
#------------------------------------------------------------------------

PK=POST_K1_K2_K3(FISSURE = FISS,
                     RESULTAT  = UTOT1x,
                     NB_NOEUD_COUPE = 6,
                    )

IMPR_TABLE(TABLE = PK)

TEST_TABLE(REFERENCE='ANALYTIQUE',
           PRECISION=0.059999999999999998,
           VALE_CALC= 1.1296446477322E+07,
           VALE_REFE=1.1202664084020415E7,
           NOM_PARA='K1',
           TABLE=PK,
           FILTRE=(_F(NOM_PARA='NUM_PT',
                      VALE_I=1,),
                   _F(NOM_PARA='INST',
                      VALE=0.0,),
                   ),
           )

#------------------------------------------------------------------------
# POST-TRAITEMENT : MAILLAGE FISSURE
#------------------------------------------------------------------------

MA_XFEM=POST_MAIL_XFEM(
                       MODELE        = MODELEK,
                       INFO          = 2)

TABDEP=POST_RELEVE_T(ACTION=_F(INTITULE='DEPLE',
                               GROUP_NO='VOL',
                               RESULTAT=UTOT1x,
                               NOM_CHAM='DEPL',
                               NUME_ORDRE=1,
                               NOM_CMP='DX',
                               OPERATION='EXTRACTION',),);

# TEST DE NON REGRESSION PAR RAPPORT A LA VERSION 8.2.14

DXREF=4.992e+03
DYREF=4.99200e+04
DZREF=1.497600051e+05
PREC=1.e-10

TEST_TABLE(CRITERE='RELATIF',
           VALE_CALC=4992.0,
           NOM_PARA='COOR_X',
           TYPE_TEST='SOMM_ABS',
           TABLE=TABDEP,
           )

TEST_TABLE(CRITERE='RELATIF',
           VALE_CALC=4.9920E4,
           NOM_PARA='COOR_Y',
           TYPE_TEST='SOMM_ABS',
           TABLE=TABDEP,
           )

TEST_TABLE(CRITERE='RELATIF',
           VALE_CALC=1.4976000510000001E5,
           NOM_PARA='COOR_Z',
           TYPE_TEST='SOMM_ABS',
           TABLE=TABDEP,
           )

#------------------------------------------------------------------------
# POST-TRAITEMENT : DEPLACEMENTS POUR LE MAILLAGE FISSURE
#------------------------------------------------------------------------

MOD_VISU=AFFE_MODELE(MAILLAGE=MA_XFEM,
                     AFFE=_F(TOUT='OUI',
                              PHENOMENE='MECANIQUE',
                              MODELISATION='3D',),) 

RES_XFEM=POST_CHAM_XFEM(MODELE_VISU   = MOD_VISU,
                        RESULTAT      = UTOT1x,
                        
                        INFO          = 2)

DEFI_FICHIER(UNITE=82);

TEST_RESU(RESU=(_F(NUME_ORDRE=1,
                   TYPE_TEST='SOMM_ABS',
                   RESULTAT=RES_XFEM,
                   NOM_CHAM='DEPL',
                   NOM_CMP='DX',
                   VALE_CALC=3.4365472944796E-04,                   
                   CRITERE='RELATIF',
                   ),
                _F(NUME_ORDRE=1,
                   TYPE_TEST='SOMM_ABS',
                   RESULTAT=RES_XFEM,
                   NOM_CHAM='DEPL',
                   NOM_CMP='DY',
                   VALE_CALC=1.8887709828705,                   
                   CRITERE='RELATIF',
                   ),
                _F(NUME_ORDRE=1,
                   TYPE_TEST='SOMM_ABS',
                   RESULTAT=RES_XFEM,
                   NOM_CHAM='DEPL',
                   NOM_CMP='DZ',
                   VALE_CALC=1.6243147256552,                   
                   CRITERE='RELATIF',
                   ),
                ),
          )

FIN();
