# TITRE BLOC AVEC INTERFACE EN CONTACT FROTTANT AVEC X-FEM
# ======================================================================
# COPYRIGHT (C) 1991 - 2012  EDF R&D                  WWW.CODE-ASTER.ORG
# THIS PROGRAM IS FREE SOFTWARE; YOU CAN REDISTRIBUTE IT AND/OR MODIFY
# IT UNDER THE TERMS OF THE GNU GENERAL PUBLIC LICENSE AS PUBLISHED BY
# THE FREE SOFTWARE FOUNDATION; EITHER VERSION 2 OF THE LICENSE, OR
# (AT YOUR OPTION) ANY LATER VERSION.
#
# THIS PROGRAM IS DISTRIBUTED IN THE HOPE THAT IT WILL BE USEFUL, BUT
# WITHOUT ANY WARRANTY; WITHOUT EVEN THE IMPLIED WARRANTY OF
# MERCHANTABILITY OR FITNESS FOR A PARTICULAR PURPOSE. SEE THE GNU
# GENERAL PUBLIC LICENSE FOR MORE DETAILS.
#
# YOU SHOULD HAVE RECEIVED A COPY OF THE GNU GENERAL PUBLIC LICENSE
# ALONG WITH THIS PROGRAM; IF NOT, WRITE TO EDF R&D CODE_ASTER,
#    1 AVENUE DU GENERAL DE GAULLE, 92141 CLAMART CEDEX, FRANCE.
# ======================================================================

DEBUT(CODE=_F(NIV_PUB_WEB='INTERNET'),DEBUG=_F(SDVERI='OUI'))

MAILLAG2=LIRE_MAILLAGE(FORMAT='MED',INFO=1);

MAILLAG2=DEFI_GROUP(reuse =MAILLAG2,
                    MAILLAGE=MAILLAG2,
                    CREA_GROUP_NO=_F(NOM='SURFQUAD',
                                     GROUP_MA='SURF'));

MODELEIN=AFFE_MODELE(MAILLAGE=MAILLAG2,
                     AFFE=(_F(GROUP_MA=('SURF'),
                              PHENOMENE='MECANIQUE',
                              MODELISATION='C_PLAN'),
                           _F(GROUP_MA=('LIG1','LIG3'),
                              PHENOMENE='MECANIQUE',
                              MODELISATION='C_PLAN')));


THETA=-30./180.*pi

LN=FORMULE(NOM_PARA=('X','Y'),VALE='(Y-10)*cos(THETA)-sin(THETA)*(X-10)');

FISS=DEFI_FISS_XFEM(MAILLAGE=MAILLAG2,
                    TYPE_DISCONTINUITE='INTERFACE',
                    DEFI_FISS=_F(FONC_LN=LN));

MODELEK=MODI_MODELE_XFEM(MODELE_IN=MODELEIN,
                         FISSURE=FISS,
                         CONTACT='OUI',
                         INFO=1);

CTXFEM = DEFI_CONTACT(MODELE         = MODELEK,
                      FORMULATION    = 'XFEM',
                      FROTTEMENT     = 'COULOMB',
                      ITER_CONT_MAXI = 4,
                      ITER_FROT_MAXI = 6,
                      REAC_GEOM      = 'SANS',
                      ZONE=(
                            _F(
                               FISS_MAIT    = FISS,
                               INTEGRATION  = 'GAUSS',
                               ORDRE_INT=3,
                               CONTACT_INIT = 'OUI',
                               COULOMB      = 1.0,
                               SEUIL_INIT   = -5,
                               ALGO_CONT    = 'STANDARD',
                               COEF_CONT    = 100.,
                               ALGO_FROT    = 'STANDARD',
                               COEF_FROT    = 1000.,
                               ALGO_LAGR    = 'VERSION2',
                             ),
                         ),
                   );

E=1.0E6
nu=0.
ACIER=DEFI_MATERIAU(ELAS=_F(E=E,
                            NU=nu,
                            RHO=7800.0));

CHAMPMAT=AFFE_MATERIAU(MAILLAGE=MAILLAG2,
                       MODELE=MODELEK,
                       AFFE=_F(GROUP_MA=('SURF','LIG1','LIG3'),
                                MATER=ACIER,
                                ));

CH1=AFFE_CHAR_MECA(MODELE=MODELEK,
                   DDL_IMPO=(_F(GROUP_MA='LIG1',
                                          DX=0.0,
                                          DY=0.0),
                                       _F(GROUP_MA='LIG3',
                                          DX=0.0,
                                          DY=-1.E-6)),
                    INFO=1);

L_INST=DEFI_LIST_REEL(DEBUT=0.0,
                      INTERVALLE=_F(JUSQU_A=1.0,
                                    NOMBRE=1));

IMPR_RESU(MODELE=MODELEK,FORMAT='ASTER',UNITE=20,
            RESU=(_F( MAILLAGE=MAILLAG2)));

UTOT1=STAT_NON_LINE(MODELE=MODELEK,
                   CHAM_MATER=CHAMPMAT,
                   EXCIT=(
                          _F(CHARGE=CH1)),
                   CONTACT  = CTXFEM,
                   COMPORTEMENT=_F(RELATION='ELAS',
                                GROUP_MA='SURF'),
                   INCREMENT=_F(LIST_INST=L_INST,
                                INST_FIN=1.0),
                   CONVERGENCE=(_F(ARRET='OUI',
                                  RESI_GLOB_RELA=1E-9)),
                   SOLVEUR=_F(METHODE='MUMPS',
                              ),
                   NEWTON=_F(REAC_ITER=1),
                   ARCHIVAGE=_F(CHAM_EXCLU='VARI_ELGA'),
                   INFO=1);


# -------------------------------------------------------------
#            POST-TRAITEMENT POUR LA VISUALISATION X-FEM
# -------------------------------------------------------------

MA_XFEM=POST_MAIL_XFEM(MODELE        = MODELEK,
                       PREF_GROUP_CO = 'NFISSU',
                       INFO          = 2)

MOD_VISU=AFFE_MODELE(MAILLAGE=MA_XFEM,
                     AFFE=_F(TOUT='OUI',
                              PHENOMENE='MECANIQUE',
                              MODELISATION='C_PLAN',),)

RES_XFEM=POST_CHAM_XFEM(MODELE_VISU   = MOD_VISU,
                        RESULTAT      = UTOT1,

                        INFO          = 2)

#IMPR_RESU(FORMAT='GMSH',UNITE=81,RESU=_F(RESULTAT=RES_XFEM));
LAG=POST_RELEVE_T(ACTION=_F(INTITULE='DEPLE',
                             GROUP_NO='NFISSU',
                             RESULTAT=RES_XFEM,
                             NOM_CHAM='DEPL',
                             NUME_ORDRE=1,
                             NOM_CMP=('LAGS_C','LAGS_F1',),
                             OPERATION='EXTRACTION',),);


IMPR_TABLE(TABLE=LAG,
           FORMAT='AGRAF',
           FORMAT_R='1PE12.5',
           IMPR_FONCTION='NON');

LAREF=-.05*3./4.
LA1REF=-1./(3.**.5)

# TESTS
TEST_TABLE(CRITERE='RELATIF',
           REFERENCE='ANALYTIQUE',
           PRECISION=1.E-4,
           VALE_CALC=-0.037500000,
           VALE_REFE=-0.037500000000000006,
           NOM_PARA='LAGS_C',
           TYPE_TEST='MAX',
           TABLE=LAG,)

TEST_TABLE(CRITERE='RELATIF',
           REFERENCE='ANALYTIQUE',
           PRECISION=1.E-4,
           VALE_CALC=-0.037500000,
           VALE_REFE=-0.037500000000000006,
           NOM_PARA='LAGS_C',
           TYPE_TEST='MIN',
           TABLE=LAG,)

TEST_TABLE(CRITERE='ABSOLU',
           REFERENCE='ANALYTIQUE',
           PRECISION=1.E-4,
           VALE_CALC=-0.577350269,
           VALE_REFE=-0.57735026918962584,
           NOM_PARA='LAGS_F1',
           TYPE_TEST='MAX',
           TABLE=LAG,)

TEST_TABLE(CRITERE='ABSOLU',
           REFERENCE='ANALYTIQUE',
           PRECISION=1.E-4,
           VALE_CALC=-0.577350269,
           VALE_REFE=-0.57735026918962584,
           NOM_PARA='LAGS_F1',
           TYPE_TEST='MIN',
           TABLE=LAG,)

FIN();
