# MODIF  DATE 10/10/2012   AUTEUR COURTOIS M.COURTOIS 
# TITRE ESSAI DE TRACTION CISAILLEMENT EN 3D (VISCOCHAB)
# ssnv118b.para = tps_job 60 mem_job 512Mo liste_test R
#            CONFIGURATION MANAGEMENT OF EDF VERSION
# ======================================================================
# COPYRIGHT (C) 1991 - 2012  EDF R&D                  WWW.CODE-ASTER.ORG
# THIS PROGRAM IS FREE SOFTWARE; YOU CAN REDISTRIBUTE IT AND/OR MODIFY
# IT UNDER THE TERMS OF THE GNU GENERAL PUBLIC LICENSE AS PUBLISHED BY
# THE FREE SOFTWARE FOUNDATION; EITHER VERSION 2 OF THE LICENSE, OR
# (AT YOUR OPTION) ANY LATER VERSION.
#
# THIS PROGRAM IS DISTRIBUTED IN THE HOPE THAT IT WILL BE USEFUL, BUT
# WITHOUT ANY WARRANTY; WITHOUT EVEN THE IMPLIED WARRANTY OF
# MERCHANTABILITY OR FITNESS FOR A PARTICULAR PURPOSE. SEE THE GNU
# GENERAL PUBLIC LICENSE FOR MORE DETAILS.
#
# YOU SHOULD HAVE RECEIVED A COPY OF THE GNU GENERAL PUBLIC LICENSE
# ALONG WITH THIS PROGRAM; IF NOT, WRITE TO EDF R&D CODE_ASTER,
#    1 AVENUE DU GENERAL DE GAULLE, 92141 CLAMART CEDEX, FRANCE.
# ======================================================================
#----------------------------------------------------------------------
#                TEST MODELE VISCOCHABOCHE MODIFIE 3D
#             ESSAI EN TRACTION CISAILLEMENT NON RADIAL
#                           CONTRAINTE IMPOSEE
#----------------------------------------------------------------------
#         ELEMENT 3D CUBE A 8 NOEUDS EN TRACTION - COMPRESSION
#              ETAT UNIAXIAL DE CONTRAINTE DEFORMATION
#       UNITES : NEWTON , MILLIMETRE , SECONDE (N,MM,S,->MPA)
#
#
#               Z       A                     A = 1 MM
#               L<------------->                      2
#                                             S = 1 MM
#                / N5            N8
#              >O--------------O
#              /L             /L
#         N6  / L         N7 / L
#           >O--+-----------O  L
#            L  L           L  L
#            L  L     S     L  L
#            L  L           L  L
#            L  L/ N1       L  L N4
#            L >O-----------L--O-> Y
#            L /V           L /
#         N2 L/          N3 L/
#           >O--------------O
#
#          /
#         X         SEUIL ELASTIQUE :
#                                   (SIGXX**2 + 3 SIGXY**2 = K**2 )
#
#
#----------------------------------------------------------------------
#
DEBUT(CODE=_F(NOM='SSNV118B', NIV_PUB_WEB='INTERNET'), DEBUG=_F(SDVERI='OUI'))

CUBE=LIRE_MAILLAGE(    )

TROISD=AFFE_MODELE(            MAILLAGE=CUBE,
                                    AFFE=_F(   PHENOMENE = 'MECANIQUE',
                                            MODELISATION = '3D',
                                            MAILLE = 'MA1'))

K_T=DEFI_FONCTION(      NOM_PARA='TEMP',
                            PROL_DROITE='CONSTANT',
                           PROL_GAUCHE='CONSTANT',
                          VALE=( 0.,     35.,
                                 1000.,  35.,      ))

A_K_T=DEFI_FONCTION(      NOM_PARA='TEMP',
                            PROL_DROITE='CONSTANT',
                           PROL_GAUCHE='CONSTANT',
                          VALE=( 0.,     1.,
                                 1000.,  1.,       ))

A_R_T=DEFI_FONCTION(      NOM_PARA='TEMP',
                            PROL_DROITE='CONSTANT',
                           PROL_GAUCHE='CONSTANT',
                          VALE=( 0.,     .65,
                                 1000.,  .65,      ))

K_0_T=DEFI_FONCTION(      NOM_PARA='TEMP',
                            PROL_DROITE='CONSTANT',
                           PROL_GAUCHE='CONSTANT',
                          VALE=( 0.,     70.,
                                 1000.,  70.,      ))

N_T=DEFI_FONCTION(      NOM_PARA='TEMP',
                            PROL_DROITE='CONSTANT',
                           PROL_GAUCHE='CONSTANT',
                          VALE=( 0.,     24.,
                                 1000.,  24.,      ))

ALP_T=DEFI_FONCTION(      NOM_PARA='TEMP',
                            PROL_DROITE='CONSTANT',
                           PROL_GAUCHE='CONSTANT',
                          VALE=( 0.,     0.,
                                 1000.,  0.,       ))

B_T=DEFI_FONCTION(      NOM_PARA='TEMP',
                            PROL_DROITE='CONSTANT',
                           PROL_GAUCHE='CONSTANT',
                          VALE=( 0.,     12.,
                                 1000.,  12.,      ))

M_R_T=DEFI_FONCTION(      NOM_PARA='TEMP',
                            PROL_DROITE='CONSTANT',
                           PROL_GAUCHE='CONSTANT',
                          VALE=( 0.,     2.,
                                 1000.,   2.,      ))

G_R_T=DEFI_FONCTION(      NOM_PARA='TEMP',
                            PROL_DROITE='CONSTANT',
                           PROL_GAUCHE='CONSTANT',
                          VALE=( 0.,     2.E-7,
                                 1000.,  2.E-7,    ))

MU_T=DEFI_FONCTION(      NOM_PARA='TEMP',
                            PROL_DROITE='CONSTANT',
                           PROL_GAUCHE='CONSTANT',
                          VALE=( 0.,     19.,
                                 1000.,  19.,      ))

Q_M_T=DEFI_FONCTION(      NOM_PARA='TEMP',
                            PROL_DROITE='CONSTANT',
                           PROL_GAUCHE='CONSTANT',
                          VALE=( 0.,     460.,
                                 1000.,  460.,     ))

Q_0_T=DEFI_FONCTION(      NOM_PARA='TEMP',
                            PROL_DROITE='CONSTANT',
                           PROL_GAUCHE='CONSTANT',
                          VALE=( 0.,     40.,
                                 1000.,  40.,      ))

QR_0_T=DEFI_FONCTION(      NOM_PARA='TEMP',
                            PROL_DROITE='CONSTANT',
                           PROL_GAUCHE='CONSTANT',
                          VALE=( 0.,     200.,
                                 1000.,  200.,     ))

ETA_T=DEFI_FONCTION(      NOM_PARA='TEMP',
                            PROL_DROITE='CONSTANT',
                           PROL_GAUCHE='CONSTANT',
                          VALE=( 0.,     .04,
                                 1000.,  .04,      ))

C1_T=DEFI_FONCTION(      NOM_PARA='TEMP',
                            PROL_DROITE='CONSTANT',
                           PROL_GAUCHE='CONSTANT',
                          VALE=( 0.,     1950.,
                                 1000.,  1950.,    ))

M_1_T=DEFI_FONCTION(      NOM_PARA='TEMP',
                            PROL_DROITE='CONSTANT',
                           PROL_GAUCHE='CONSTANT',
                          VALE=( 0.,     4.,
                                 1000.,  4.,       ))

D1_T=DEFI_FONCTION(      NOM_PARA='TEMP',
                            PROL_DROITE='CONSTANT',
                           PROL_GAUCHE='CONSTANT',
                          VALE=( 0.,     0.397E-3,
                                 1000.,  0.397E-3, ))

G_X1_T=DEFI_FONCTION(      NOM_PARA='TEMP',
                            PROL_DROITE='CONSTANT',
                           PROL_GAUCHE='CONSTANT',
                          VALE=( 0.,     2.E-13,
                                 1000.,  2.E-13,   ))

G1_0_T=DEFI_FONCTION(      NOM_PARA='TEMP',
                            PROL_DROITE='CONSTANT',
                           PROL_GAUCHE='CONSTANT',
                          VALE=( 0.,     50.,
                                 1000.,  50.,      ))

C2_T=DEFI_FONCTION(      NOM_PARA='TEMP',
                            PROL_DROITE='CONSTANT',
                           PROL_GAUCHE='CONSTANT',
                          VALE=( 0.,     65000.,
                                 1000.,  65000.,   ))

M_2_T=DEFI_FONCTION(      NOM_PARA='TEMP',
                            PROL_DROITE='CONSTANT',
                           PROL_GAUCHE='CONSTANT',
                          VALE=( 0.,     4.,
                                 1000.,  4.,       ))

D2_T=DEFI_FONCTION(      NOM_PARA='TEMP',
                            PROL_DROITE='CONSTANT',
                           PROL_GAUCHE='CONSTANT',
                          VALE=( 0.,     0.552E-1,
                                 1000.,  0.552E-1, ))

G_X2_T=DEFI_FONCTION(      NOM_PARA='TEMP',
                            PROL_DROITE='CONSTANT',
                           PROL_GAUCHE='CONSTANT',
                          VALE=( 0.,     1.E-12,
                                 1000.,  1.E-12,   ))

G2_0_T=DEFI_FONCTION(      NOM_PARA='TEMP',
                            PROL_DROITE='CONSTANT',
                           PROL_GAUCHE='CONSTANT',
                          VALE=( 0.,     1300.,
                                 1000.,  1300.,    ))

A_I_T=DEFI_FONCTION(      NOM_PARA='TEMP',
                            PROL_DROITE='CONSTANT',
                           PROL_GAUCHE='CONSTANT',
                          VALE=( 0.,     0.5,
                                 1000.,  0.5,      ))

ACIER=DEFI_MATERIAU(            ELAS=_F(   E = 145000.,
                                            NU = 0.3,
                                            ALPHA = 0.),

                             VISCOCHAB_FO=_F(   K = K_T,
                                            A_K = A_K_T,
                                            A_R = A_R_T,
                                            K_0 = K_0_T,
                                            N = N_T,
                                            ALP = ALP_T,
                                            B = B_T,
                                            M_R = M_R_T,
                                            G_R = G_R_T,
                                            MU = MU_T,
                                            Q_M = Q_M_T,
                                            Q_0 = Q_0_T,
                                            QR_0 = QR_0_T,
                                            ETA = ETA_T,
                                            C1 = C1_T,
                                            M_1 = M_1_T,
                                            D1 = D1_T,
                                            G_X1 = G_X1_T,
                                            G1_0 = G1_0_T,
                                            C2 = C2_T,
                                            M_2 = M_2_T,
                                            D2 = D2_T,
                                            G_X2 = G_X2_T,
                                            G2_0 = G2_0_T,
                                            A_I = A_I_T))

CHT0=CREA_CHAMP(OPERATION='AFFE', TYPE_CHAM='CART_TEMP_R', MAILLAGE=CUBE,
           AFFE=_F(  TOUT='OUI',   NOM_CMP = 'TEMP',   VALE = 0.E0,  ) )
MAT=AFFE_MATERIAU(  MAILLAGE=CUBE,
                    AFFE=_F(  MAILLE = 'MA1', MATER = ACIER),
                    AFFE_VARC= _F( TOUT = 'OUI', VALE_REF=0.,NOM_VARC = 'TEMP', CHAMP_GD=CHT0,),
                                           )

LINST=DEFI_LIST_REEL(              DEBUT=0.,INTERVALLE=(

                            _F(  JUSQU_A = 4.,      NOMBRE = 1),
                            _F(  JUSQU_A = 10.,      NOMBRE = 10))
                                         )

COND_LIM=AFFE_CHAR_MECA(
                     MODELE=TROISD,DDL_IMPO=(
                   _F(  NOEUD = 'N6',         DZ = 0.,  DY = 0.),
                            _F(  NOEUD = 'N2',         DY = 0.),
                            _F(  GROUP_NO = 'FACE1YZ',  DX = 0.)))

TRAC=AFFE_CHAR_MECA(
                     MODELE=TROISD,
               FORCE_NODALE=_F(  GROUP_NO = 'FACEYZ',  FX = -.25))

CIS=AFFE_CHAR_MECA(
                     MODELE=TROISD,FORCE_NODALE=(
               _F(  GROUP_NO = 'FACEYZ',  FY = -.25),
               _F(  GROUP_NO = 'FACEXZ',  FX = -.25),
               _F(  GROUP_NO = 'FACE1YZ', FY = .25),
               _F(  GROUP_NO = 'FACE1XZ', FX = .25)))

COEF_TR=DEFI_FONCTION(
                              NOM_PARA='INST',
                                  VALE=(
                                           0.,   0.,
                                          10.,   150.,
     ))

COEF_CS=DEFI_FONCTION(
                              NOM_PARA='INST',
                                  VALE=(
                                           0.,     0.,
                                          10.,    60.,
     ))

SOLNL=STAT_NON_LINE(
                TITRE='TEST TRAC MODELE VISCOCHAB',
                            MODELE=TROISD,
                        CHAM_MATER=MAT,EXCIT=(
                             _F(
                CHARGE = COND_LIM),
                             _F(
                CHARGE = TRAC,
                FONC_MULT = COEF_TR),
                             _F(
                CHARGE = CIS,
                FONC_MULT = COEF_CS)),
                         COMP_INCR=_F(
                RELATION = 'VISCOCHAB',
                DEFORMATION = 'PETIT',
                ITER_INTE_MAXI = 40,
                ITER_INTE_PAS = 15,
                RESI_INTE_RELA = 1.0E-07,
                TOUT = 'OUI'),
                         INCREMENT=_F(
                LIST_INST = LINST),
                            NEWTON=_F(
                MATRICE = 'ELASTIQUE',
                REAC_INCR = 1,
                REAC_ITER = 1),
                       CONVERGENCE=_F(
                RESI_GLOB_RELA = 1.0E-06),
                     RECH_LINEAIRE=_F(
                ITER_LINE_MAXI = 5,
                RESI_LINE_RELA = 1.0E-03,
                RHO_MAX=80)
              )

SOLNL=CALC_CHAMP(reuse=SOLNL,CONTRAINTE=('SIGM_ELNO'),VARI_INTERNE=('VARI_ELNO'),DEFORMATION=('EPSI_ELNO'),RESULTAT=SOLNL,INST=10.)


TEST_RESU(RESU=(_F(NUME_ORDRE=11,
                   RESULTAT=SOLNL,
                   NOM_CHAM='SIGM_ELNO',
                   NOEUD='N1',
                   NOM_CMP='SIXX',
                   VALE_CALC=150.00017082458,
                   VALE_REFE=150.0,
                   REFERENCE='NON_DEFINI',
                   TOLE_MACHINE=1.E-5,
                   PRECISION=1.5E-3,
                   MAILLE='MA1',),
                _F(NUME_ORDRE=11,
                   RESULTAT=SOLNL,
                   NOM_CHAM='SIGM_ELNO',
                   NOEUD='N1',
                   NOM_CMP='SIXY',
                   VALE_CALC=59.999995706,
                   VALE_REFE=60.0,
                   REFERENCE='NON_DEFINI',
                   PRECISION=1.5E-3,
                   MAILLE='MA1',),
                _F(NUME_ORDRE=11,
                   RESULTAT=SOLNL,
                   NOM_CHAM='EPSI_ELNO',
                   NOEUD='N1',
                   NOM_CMP='EPXX',
                   VALE_CALC=0.015035102,
                   VALE_REFE=0.0149455,
                   REFERENCE='NON_DEFINI',
                   PRECISION=1.E-2,
                   MAILLE='MA1',),
                _F(NUME_ORDRE=11,
                   RESULTAT=SOLNL,
                   NOM_CHAM='EPSI_ELNO',
                   NOEUD='N1',
                   NOM_CMP='EPXY',
                   VALE_CALC= 8.93830208E-03,
                   VALE_REFE=8.8845299999999999E-3,
                   REFERENCE='NON_DEFINI',
                   PRECISION=1.E-2,
                   MAILLE='MA1',),
                _F(NUME_ORDRE=11,
                   RESULTAT=SOLNL,
                   NOM_CHAM='VARI_ELNO',
                   NOEUD='N1',
                   NOM_CMP='V1',
                   VALE_CALC=12.504859382,
                   VALE_REFE=12.4955,
                   REFERENCE='NON_DEFINI',
                   PRECISION=5.0000000000000001E-3,
                   MAILLE='MA1',),
                _F(NUME_ORDRE=11,
                   RESULTAT=SOLNL,
                   NOM_CHAM='VARI_ELNO',
                   NOEUD='N1',
                   NOM_CMP='V7',
                   VALE_CALC=30.0352,
                   TOLE_MACHINE=1.E-3,
                   MAILLE='MA1',),
                _F(NUME_ORDRE=11,
                   RESULTAT=SOLNL,
                   NOM_CHAM='VARI_ELNO',
                   NOEUD='N1',
                   NOM_CMP='V13',
                   VALE_CALC=0.017032488,
                   VALE_REFE=0.016923500000000001,
                   REFERENCE='NON_DEFINI',
                   PRECISION=1.E-2,
                   MAILLE='MA1',),
                _F(NUME_ORDRE=11,
                   RESULTAT=SOLNL,
                   NOM_CHAM='VARI_ELNO',
                   NOEUD='N1',
                   NOM_CMP='V14',
                   VALE_CALC=8.427544044,
                   VALE_REFE=8.3683599999999991,
                   REFERENCE='NON_DEFINI',
                   PRECISION=1.E-2,
                   MAILLE='MA1',),
                _F(NUME_ORDRE=11,
                   RESULTAT=SOLNL,
                   NOM_CHAM='VARI_ELNO',
                   NOEUD='N1',
                   NOM_CMP='V15',
                   VALE_CALC= 6.81299520E-04,
                   VALE_REFE=6.7663300000000005E-4,
                   REFERENCE='NON_DEFINI',
                   PRECISION=1.E-2,
                   MAILLE='MA1',),
                _F(NUME_ORDRE=11,
                   RESULTAT=SOLNL,
                   NOM_CHAM='VARI_ELNO',
                   NOEUD='N1',
                   NOM_CMP='V16',
                   VALE_CALC=0.013437525,
                   VALE_REFE=0.013348499999999999,
                   REFERENCE='NON_DEFINI',
                   PRECISION=1.E-2,
                   MAILLE='MA1',),
                ),
          )

FIN()
#
