# TITRE CYLINDRE EN INCOMPRESSIBLE (TRIA6 QUAD8) AXISYM GRANDES DEFORMATIONS
# ======================================================================
# COPYRIGHT (C) 1991 - 2015  EDF R&D                  WWW.CODE-ASTER.ORG
# THIS PROGRAM IS FREE SOFTWARE; YOU CAN REDISTRIBUTE IT AND/OR MODIFY
# IT UNDER THE TERMS OF THE GNU GENERAL PUBLIC LICENSE AS PUBLISHED BY
# THE FREE SOFTWARE FOUNDATION; EITHER VERSION 2 OF THE LICENSE, OR
# (AT YOUR OPTION) ANY LATER VERSION.
#
# THIS PROGRAM IS DISTRIBUTED IN THE HOPE THAT IT WILL BE USEFUL, BUT
# WITHOUT ANY WARRANTY; WITHOUT EVEN THE IMPLIED WARRANTY OF
# MERCHANTABILITY OR FITNESS FOR A PARTICULAR PURPOSE. SEE THE GNU
# GENERAL PUBLIC LICENSE FOR MORE DETAILS.
#
# YOU SHOULD HAVE RECEIVED A COPY OF THE GNU GENERAL PUBLIC LICENSE
# ALONG WITH THIS PROGRAM; IF NOT, WRITE TO EDF R&D CODE_ASTER,
#    1 AVENUE DU GENERAL DE GAULLE, 92141 CLAMART CEDEX, FRANCE.
# ======================================================================
# CYLINDRE CREUX EN INCOMPRESSIBLE (NU=0.4999)
# SOUS PRESSION INTERNE (60 MPA) - GRANDES DEFORMATIONS
#
# MODELISATION : ELEMENTS MECANIQUE AXIS_INCO_UPG (TRIA6 QUAD8)
# MAILLAGE     : ALIBABA > ASTER
# ----------------------------------------------------------------------
# GROUPES DE NOEUDS ET MAILLES: A B C D E F  NOEUMIA NOEUMIB  FACESUP   FACEINF
#             BORDAB=GRNM11     FACEEF=GRMA12     FACEAE=GRMA13
# ----------------------------------------------------------------------

DEBUT(CODE=_F(
              NIV_PUB_WEB='INTERNET'),
      DEBUG=_F(SDVERI='OUI'));

M=LIRE_MAILLAGE(FORMAT='MED');

PRES = FORMULE(VALE='60.',
               NOM_PARA=('X','Y'));
PRES_0 = 0.0;


MO=AFFE_MODELE(MAILLAGE=M,
               
               AFFE=_F(TOUT='OUI',
                       PHENOMENE='MECANIQUE',
                       MODELISATION='AXIS_INCO_UPGB'));

MA=DEFI_MATERIAU(ELAS=_F(E=200000.0,
                         NU=0.4999,
                         ALPHA=0.),
                 ECRO_LINE=_F(D_SIGM_EPSI=0.,
                              SY=1.E10));

CM=AFFE_MATERIAU(MAILLAGE=M,
                 AFFE=_F(TOUT='OUI',
                         MATER=MA));

CLIM=AFFE_CHAR_MECA(MODELE=MO,
                    DDL_IMPO=(_F(GROUP_MA='GRMA11',
                                 DY=0.0),
                              _F(GROUP_MA='GRMA12',
                                 DY=0.0)));

CH=AFFE_CHAR_MECA(MODELE=MO,
                  FACE_IMPO=_F(GROUP_MA='GRMA13',
                               DX=6e-05),
                  PRES_REP=_F(GROUP_MA='GRMA14',
                              PRES=PRES_0));

#                       PRES_REP=_F(  GROUP_MA = 'GRMA13',  PRES = PRES) )

L_INST1=DEFI_LIST_REEL(DEBUT=0.0,
                       INTERVALLE=_F(JUSQU_A=1.0,
                                     NOMBRE=1));

RAMPE=DEFI_FONCTION(NOM_PARA='INST',VALE=(0.0,0.0,
                          1.0,1.0,
                          ),PROL_DROITE='CONSTANT');

# LES SYSTEMES LINEAIRES SONT DIFFICILES A RESOUDRE.
# ON DEVERROUILLE LA DETECTION DE SINGULARITE. LE PROCESSUS DE NEWTON
# CORRIGE LES EVENTUELLES DERIVES.
EVOL=STAT_NON_LINE(INFO=1,
                   MODELE=MO,
                   CHAM_MATER=CM,
                   EXCIT=(_F(CHARGE=CLIM),
                          _F(CHARGE=CH,
                             FONC_MULT=RAMPE)),
                   COMPORTEMENT=_F(RELATION='VMIS_ISOT_LINE',
                                DEFORMATION='GDEF_LOG'),
                   INCREMENT=_F(LIST_INST=L_INST1),
                   NEWTON=_F(REAC_ITER=1),
                   CONVERGENCE=_F(SIGM_REFE=60.0,
                                  EPSI_REFE=3.E-4,
                                  RESI_REFE_RELA=1.E-3),
                   SOLVEUR=_F(METHODE='MUMPS',
   NPREC=-1));

EVOL=CALC_CHAMP(reuse=EVOL,RESULTAT=EVOL,CRITERES=('SIEQ_ELNO'),CONTRAINTE=('SIGM_ELNO'))


EVOL=CALC_ERREUR(reuse =EVOL,
                 RESULTAT=EVOL,
                 OPTION=('ERME_ELEM','ERME_ELNO'));

EVOL=CALC_CHAMP(reuse =EVOL,
             RESULTAT=EVOL,
             CONTRAINTE='SIGM_NOEU',CRITERES='SIEQ_NOEU');

#---------------------------------------------------------------
# POSTTRAITEMENT ETUDE 1
#---------------------------------------------------------------

TEST_RESU(RESU=(_F(GROUP_NO='A',
                   INST=1.0,
                   REFERENCE='ANALYTIQUE',
                   RESULTAT=EVOL,
                   NOM_CHAM='DEPL',
                   NOM_CMP='DX',
                   VALE_CALC=6E-05,
                   VALE_REFE=6.E-05,
                   CRITERE='RELATIF',),
                _F(GROUP_NO='A',
                   INST=1.0,
                   REFERENCE='ANALYTIQUE',
                   RESULTAT=EVOL,
                   NOM_CHAM='DEPL',
                   NOM_CMP='DY',
                   VALE_CALC=0.,
                   VALE_REFE=0.0,
                   CRITERE='ABSOLU',),
                _F(GROUP_NO='F',
                   INST=1.0,
                   REFERENCE='ANALYTIQUE',
                   RESULTAT=EVOL,
                   NOM_CHAM='DEPL',
                   NOM_CMP='DX',
                   VALE_CALC=3.00113473641E-05,
                   VALE_REFE=3.E-05,
                   CRITERE='RELATIF',
                   PRECISION=5.E-4,),
                _F(GROUP_NO='F',
                   INST=1.0,
                   REFERENCE='ANALYTIQUE',
                   RESULTAT=EVOL,
                   NOM_CHAM='DEPL',
                   NOM_CMP='DY',
                   VALE_CALC=0.,
                   VALE_REFE=0.0,
                   CRITERE='ABSOLU',),
                ),
          )

#-----------------------------------------------------------------

TEST_RESU(RESU=(_F(GROUP_NO='A',
                   INST=1.0,
                   REFERENCE='ANALYTIQUE',
                   RESULTAT=EVOL,
                   NOM_CHAM='SIGM_NOEU',
                   NOM_CMP='SIXX',
                   VALE_CALC=-59.858887519,
                   VALE_REFE=-59.9955,
                   CRITERE='RELATIF',
                   PRECISION=5.E-3,),
                _F(GROUP_NO='A',
                   INST=1.0,
                   REFERENCE='ANALYTIQUE',
                   RESULTAT=EVOL,
                   NOM_CHAM='SIGM_NOEU',
                   NOM_CMP='SIYY',
                   VALE_CALC=20.0217017339,
                   VALE_REFE=19.932600000000001,
                   CRITERE='RELATIF',
                   PRECISION=5.E-3,),
                _F(GROUP_NO='A',
                   INST=1.0,
                   REFERENCE='ANALYTIQUE',
                   RESULTAT=EVOL,
                   NOM_CHAM='SIGM_NOEU',
                   NOM_CMP='SIZZ',
                   VALE_CALC=99.9103012611,
                   VALE_REFE=99.9566,
                   CRITERE='RELATIF',
                   PRECISION=5.E-4,),
                _F(GROUP_NO='A',
                   INST=1.0,
                   REFERENCE='ANALYTIQUE',
                   RESULTAT=EVOL,
                   NOM_CHAM='SIGM_NOEU',
                   NOM_CMP='SIXY',
                   VALE_CALC=-6.64818056543E-12,
                   VALE_REFE=0.0,
                   CRITERE='ABSOLU',),
                _F(GROUP_NO='F',
                   INST=1.0,
                   REFERENCE='ANALYTIQUE',
                   RESULTAT=EVOL,
                   NOM_CHAM='SIGM_NOEU',
                   NOM_CMP='SIXX',
                   VALE_CALC=0.0251588739555,
                   VALE_REFE=0.0,
                   CRITERE='ABSOLU',
                   PRECISION=3.E-2,),
                _F(GROUP_NO='F',
                   INST=1.0,
                   REFERENCE='ANALYTIQUE',
                   RESULTAT=EVOL,
                   NOM_CHAM='SIGM_NOEU',
                   NOM_CMP='SIYY',
                   VALE_CALC=20.0042968742,
                   VALE_REFE=20.0,
                   CRITERE='RELATIF',
                   PRECISION=3.E-4,),
                _F(GROUP_NO='F',
                   INST=1.0,
                   REFERENCE='ANALYTIQUE',
                   RESULTAT=EVOL,
                   NOM_CHAM='SIGM_NOEU',
                   NOM_CMP='SIZZ',
                   VALE_CALC=39.9984138199,
                   VALE_REFE=40.006,
                   CRITERE='RELATIF',
                   PRECISION=3.E-4,),
                _F(GROUP_NO='F',
                   INST=1.0,
                   REFERENCE='ANALYTIQUE',
                   RESULTAT=EVOL,
                   NOM_CHAM='SIGM_NOEU',
                   NOM_CMP='SIXY',
                   VALE_CALC=-0.00494961905595,
                   VALE_REFE=0.0,
                   CRITERE='ABSOLU',
                   PRECISION=5.E-3,),
                ),
          )

TEST_RESU(RESU=(_F(GROUP_NO='A',
                   INST=1.0,
                   REFERENCE='ANALYTIQUE',
                   RESULTAT=EVOL,
                   NOM_CHAM='SIEQ_NOEU',
                   NOM_CMP='VMIS',
                   VALE_CALC=138.364176284,
                   VALE_REFE=138.5226,
                   CRITERE='RELATIF',
                   PRECISION=2.E-3,
                   MAILLE='M1',),
                _F(GROUP_NO='A',
                   INST=1.0,
                   REFERENCE='ANALYTIQUE',
                   RESULTAT=EVOL,
                   NOM_CHAM='SIEQ_NOEU',
                   NOM_CMP='TRESCA',
                   VALE_CALC=159.76918878,
                   VALE_REFE=159.9521,
                   CRITERE='RELATIF',
                   PRECISION=2.E-3,
                   MAILLE='M1',),
                _F(GROUP_NO='A',
                   INST=1.0,
                   REFERENCE='ANALYTIQUE',
                   RESULTAT=EVOL,
                   NOM_CHAM='SIEQ_NOEU',
                   NOM_CMP='PRIN_1',
                   VALE_CALC=-59.858887519,
                   VALE_REFE=-59.9955,
                   CRITERE='RELATIF',
                   PRECISION=3.E-3,
                   MAILLE='M1',),
                _F(GROUP_NO='A',
                   INST=1.0,
                   REFERENCE='ANALYTIQUE',
                   RESULTAT=EVOL,
                   NOM_CHAM='SIEQ_NOEU',
                   NOM_CMP='PRIN_2',
                   VALE_CALC=20.0217017339,
                   VALE_REFE=19.9326,
                   CRITERE='RELATIF',
                   PRECISION=5.E-3,
                   MAILLE='M1',),
                _F(GROUP_NO='A',
                   INST=1.0,
                   REFERENCE='ANALYTIQUE',
                   RESULTAT=EVOL,
                   NOM_CHAM='SIEQ_NOEU',
                   NOM_CMP='PRIN_3',
                   VALE_CALC=99.9103012611,
                   VALE_REFE=99.9566,
                   CRITERE='RELATIF',
                   PRECISION=5.E-4,
                   MAILLE='M1',),
                _F(GROUP_NO='A',
                   INST=1.0,
                   REFERENCE='ANALYTIQUE',
                   RESULTAT=EVOL,
                   NOM_CHAM='SIEQ_NOEU',
                   NOM_CMP='VMIS_SG',
                   VALE_CALC=138.364176284,
                   VALE_REFE=138.5226,
                   CRITERE='RELATIF',
                   PRECISION=2.E-3,
                   MAILLE='M1',),
                ),
          )

#
#  TEST SUR L'ESTIMATEUR D'ERREUR EN RESIDU

TEST_RESU(RESU=_F(INST=1.0,
                  POINT=1,
                  RESULTAT=EVOL,
                  NOM_CHAM='ERME_ELEM',
                  NOM_CMP='NUEST',
                  VALE_CALC=6.33330404213E-05,
                  CRITERE='RELATIF',
                  MAILLE='M2',
                  ),
          )

TEST_RESU(RESU=_F(GROUP_NO='A',
                  INST=1.0,
                  RESULTAT=EVOL,
                  NOM_CHAM='ERME_ELNO',
                  NOM_CMP='ERREST',
                  VALE_CALC=1.14731053635E-07,
                  CRITERE='RELATIF',
                  MAILLE='M2',
                  ),
          )

FIN();
