# -*- coding: utf-8 -*-
# TITRE : TRACTION SUR UN POLYCRISTAL A 10 GRAINS, AVEC SIMU_POINT_MAT
# ======================================================================
# COPYRIGHT (C) 1991 - 2012  EDF R&D                  WWW.CODE-ASTER.ORG
# THIS PROGRAM IS FREE SOFTWARE; YOU CAN REDISTRIBUTE IT AND/OR MODIFY
# IT UNDER THE TERMS OF THE GNU GENERAL PUBLIC LICENSE AS PUBLISHED BY
# THE FREE SOFTWARE FOUNDATION; EITHER VERSION 2 OF THE LICENSE, OR
# (AT YOUR OPTION) ANY LATER VERSION.
#
# THIS PROGRAM IS DISTRIBUTED IN THE HOPE THAT IT WILL BE USEFUL, BUT
# WITHOUT ANY WARRANTY; WITHOUT EVEN THE IMPLIED WARRANTY OF
# MERCHANTABILITY OR FITNESS FOR A PARTICULAR PURPOSE. SEE THE GNU
# GENERAL PUBLIC LICENSE FOR MORE DETAILS.
#
# YOU SHOULD HAVE RECEIVED A COPY OF THE GNU GENERAL PUBLIC LICENSE
# ALONG WITH THIS PROGRAM; IF NOT, WRITE TO EDF R&D CODE_ASTER,
#    1 AVENUE DU GENERAL DE GAULLE, 92141 CLAMART CEDEX, FRANCE.
# ======================================================================
# person_in_charge: jean-michel.proix at edf.fr

DEBUT(CODE=_F(
NIV_PUB_WEB='INTERNET',),DEBUG=_F(SDVERI='OUI'))


TFIN = 0.005;

LINST=DEFI_LIST_REEL(DEBUT=0.0,
                     INTERVALLE=(_F(JUSQU_A=0.001,
                                    NOMBRE=1,),
                                 _F(JUSQU_A=0.0018,
                                    NOMBRE=140,),
                                 _F(JUSQU_A=TFIN,
                                    NOMBRE=150,),
                                    ),);

ACIER=DEFI_MATERIAU(ELAS=_F(E=145200.0,
                            NU=0.3,),
                    MONO_VISC1=_F(N=10.0,
                                  K=40.0,
                                  C=1.0,),
                    MONO_ISOT1=_F(R_0=75.5,
                                  Q=9.77,
                                  B=19.34,
                                  H1=1.0,
                                  H2=1.0,
                                  H3=1.0,
                                  H4=1.0,
                                  ),
                    MONO_CINE1=_F(D=36.68,),);
                    
ACIER2=DEFI_MATERIAU(ELAS=_F(E=145200.0,
                            NU=0.3,),
                    MONO_VISC1=_F(N=10.0,
                                  K=40.0,
                                  C=1.0,),
                    MONO_ISOT1=_F(R_0=75.5,
                                  Q=9.77,
                                  B=19.34,
                                  H1=1.0,
                                  H2=1.0,
                                  H3=1.0,
                                  H4=1.0,
                                  ),
                    MONO_CINE1=_F(D=36.68,),);

EPSZZ=DEFI_FONCTION(NOM_PARA='INST',
                   VALE=(0.0,0.0,1.0,1.0,),
                   PROL_DROITE='LINEAIRE',
                   PROL_GAUCHE='LINEAIRE',);

COMPORT=DEFI_COMPOR(MONOCRISTAL=(_F(MATER=ACIER,
                                    ECOULEMENT='MONO_VISC1',
                                    ECRO_ISOT='MONO_ISOT1',
                                    ECRO_CINE='MONO_CINE1',
                                    ELAS='ELAS',
                                    FAMI_SYST_GLIS='BCC24',),),);


COMPORT2=DEFI_COMPOR(MONOCRISTAL=(_F(MATER=ACIER2,
                                    ECOULEMENT='MONO_VISC1',
                                    ECRO_ISOT='MONO_ISOT1',
                                    ECRO_CINE='MONO_CINE1',
                                    ELAS='ELAS',
                                    FAMI_SYST_GLIS='BCC24',),),);



COMPORP=DEFI_COMPOR(POLYCRISTAL=(
                        _F(MONOCRISTAL=COMPORT,FRAC_VOL=0.1,ANGL_EULER=(-150.646,33.864,55.646,),),
                        _F(MONOCRISTAL=COMPORT,FRAC_VOL=0.1,ANGL_EULER=(-137.138,41.5917,142.138,),),
                        _F(MONOCRISTAL=COMPORT,FRAC_VOL=0.1,ANGL_EULER=(-166.271,35.46958,171.271,),),
                        _F(MONOCRISTAL=COMPORT,FRAC_VOL=0.1,ANGL_EULER=(-77.676,15.61819,154.676,),),
                        _F(MONOCRISTAL=COMPORT,FRAC_VOL=0.1,ANGL_EULER=(-78.6463,33.864,155.646,),),
                        _F(MONOCRISTAL=COMPORT,FRAC_VOL=0.1,ANGL_EULER=(-65.1378,41.5917,142.138,),),
                        _F(MONOCRISTAL=COMPORT,FRAC_VOL=0.1,ANGL_EULER=(-94.2711,35.46958,71.271,),),
                        _F(MONOCRISTAL=COMPORT,FRAC_VOL=0.1,ANGL_EULER=(-5.67599,15.61819,154.676,),),
                        _F(MONOCRISTAL=COMPORT,FRAC_VOL=0.1,ANGL_EULER=(-6.64634,33.864,155.646,),),
                        _F(MONOCRISTAL=COMPORT,FRAC_VOL=0.1,ANGL_EULER=(6.86224,41.5917,142.138,),),
                        ),
                    LOCALISATION='BETA',DL=0.,DA=0.,
                    MU_LOCA=145200./2.6,
                    
                    )
                    
COMPORP2=DEFI_COMPOR(POLYCRISTAL=(
                        _F(MONOCRISTAL=COMPORT,FRAC_VOL=0.1,ANGL_EULER=(-150.646,33.864,55.646,),),
                        _F(MONOCRISTAL=COMPORT,FRAC_VOL=0.1,ANGL_EULER=(-137.138,41.5917,142.138,),),
                        _F(MONOCRISTAL=COMPORT,FRAC_VOL=0.1,ANGL_EULER=(-166.271,35.46958,171.271,),),
                        _F(MONOCRISTAL=COMPORT,FRAC_VOL=0.1,ANGL_EULER=(-77.676,15.61819,154.676,),),
                        _F(MONOCRISTAL=COMPORT,FRAC_VOL=0.1,ANGL_EULER=(-78.6463,33.864,155.646,),),
                        _F(MONOCRISTAL=COMPORT2,FRAC_VOL=0.1,ANGL_EULER=(-65.1378,41.5917,142.138,),),
                        _F(MONOCRISTAL=COMPORT2,FRAC_VOL=0.1,ANGL_EULER=(-94.2711,35.46958,71.271,),),
                        _F(MONOCRISTAL=COMPORT2,FRAC_VOL=0.1,ANGL_EULER=(-5.67599,15.61819,154.676,),),
                        _F(MONOCRISTAL=COMPORT2,FRAC_VOL=0.1,ANGL_EULER=(-6.64634,33.864,155.646,),),
                        _F(MONOCRISTAL=COMPORT2,FRAC_VOL=0.1,ANGL_EULER=(6.86224,41.5917,142.138,),),
                        ),
                    LOCALISATION='BETA',DL=0.,DA=0.,
                    MU_LOCA=145200./2.6,
                    );

DEFLIST1 =DEFI_LIST_INST(DEFI_LIST=_F(LIST_INST = LINST),
                        ECHEC=(
                              _F(EVENEMENT     = 'ERREUR',
                                 ACTION        = 'DECOUPE',
                                 SUBD_METHODE  = 'MANUEL',
                                 SUBD_PAS      = 10,
                                 SUBD_NIVEAU   = 10),
                              _F(EVENEMENT='DELTA_GRANDEUR',
                                 VALE_REF=2.e-5,
                                 NOM_CHAM='VARI_ELGA',
                                 NOM_CMP ='V3',
                                 SUBD_NIVEAU=10),
                         ))

SOLNL=SIMU_POINT_MAT(INFO=1,
                   COMPORTEMENT=_F(
                                RELATION='POLYCRISTAL',
                                COMPOR=COMPORP2,
                                ALGO_INTE='RUNGE_KUTTA',
                                RESI_INTE_RELA=1.E-6,
                                ),
                   NEWTON=_F(
                             MATRICE='ELASTIQUE',
                             PREDICTION='EXTRAPOLE',
                             REAC_ITER=0
                             ),
                   CONVERGENCE=_F(ITER_GLOB_MAXI=50,#RESI_GLOB_RELA=1.E-4
                                     ),
                   MATER      = (ACIER,ACIER2),

                   FORMAT_TABLE='CMP_COLONNE',

                   NB_VARI_TABLE=6,

                   INCREMENT=_F(LIST_INST=DEFLIST1),
                   ARCHIVAGE=_F(LIST_INST=LINST),
                   EPSI_IMPOSE=_F(EPZZ=EPSZZ)
                        );

# comparaison a la modelisation A - agregat 10 grains
TEST_TABLE(REFERENCE='AUTRE_ASTER',
           PRECISION=0.089999999999999997,
           VALE_CALC=301.13972436315,
           VALE_REFE=279.77699999999999,
           NOM_PARA='SIZZ',
           TABLE=SOLNL,
           FILTRE=_F(NOM_PARA='INST',
                     VALE=5.0E-3,),
           )

TEST_TABLE(REFERENCE='AUTRE_ASTER',
           PRECISION=0.059999999999999998,
           VALE_CALC= 2.9260350907111E-03,
           VALE_REFE=3.0731600000000001E-3,
           NOM_PARA='V3',
           TABLE=SOLNL,
           FILTRE=_F(NOM_PARA='INST',
                     VALE=5.0E-3,),
           )

# non regression
TEST_TABLE(
           VALE_CALC=301.13972436315,
           NOM_PARA='SIZZ',
           TABLE=SOLNL,
           FILTRE=_F(NOM_PARA='INST',
                     VALE=5.0E-3,),
           )

TEST_TABLE(
           VALE_CALC=2.9260350907111E-3,
           NOM_PARA='V3',
           TABLE=SOLNL,
           FILTRE=_F(NOM_PARA='INST',
                     VALE=5.0E-3,),
           )

# test de FORMAT_TABLE='CMP_LIGNE'

SOLNL2=SIMU_POINT_MAT(INFO=1,
                   COMPORTEMENT=_F(
                                RELATION='POLYCRISTAL',
                                COMPOR=COMPORP,
                                ALGO_INTE='RUNGE_KUTTA',
                                RESI_INTE_RELA=1.E-6,
                                ),
                   NEWTON=_F(
                             MATRICE='ELASTIQUE',
                             PREDICTION='EXTRAPOLE',
                             REAC_ITER=0
                             ),
                   CONVERGENCE=_F(ITER_GLOB_MAXI=50,#RESI_GLOB_RELA=1.E-4
                                     ),
                   MATER      = ACIER,

                   FORMAT_TABLE='CMP_LIGNE',

                   NB_VARI_TABLE=6,

                   INCREMENT=_F(LIST_INST=DEFLIST1),
                   ARCHIVAGE=_F(LIST_INST=LINST),
                   EPSI_IMPOSE=_F(EPZZ=EPSZZ)
                        );

# comparaison a la modelisation A - agregat 10 grains
TEST_TABLE(REFERENCE='AUTRE_ASTER',
           PRECISION=0.089999999999999997,
           VALE_CALC=301.139724363,
           VALE_REFE=279.77699999999999,
           NOM_PARA='VALEUR',
           TABLE=SOLNL2,
           FILTRE=(_F(NOM_PARA='INST',
                      VALE=5.0000000000000001E-3,),
                   _F(NOM_PARA='CMP',
                      VALE_K='SIZZ',),
                   ),
           )

TEST_TABLE(REFERENCE='AUTRE_ASTER',
           PRECISION=0.059999999999999998,
           VALE_CALC= 2.92603509E-03,
           VALE_REFE=3.0731600000000001E-3,
           NOM_PARA='VALEUR',
           TABLE=SOLNL2,
           FILTRE=(_F(NOM_PARA='INST',
                      VALE=5.0E-3,),
                   _F(NOM_PARA='CMP',
                      VALE_K='V3',),
                   ),
           )

# non regression

TEST_TABLE(
           VALE_CALC=301.13972436315,
           NOM_PARA='VALEUR',
           TABLE=SOLNL2,
           FILTRE=(_F(NOM_PARA='INST',
                      VALE=5.0E-3,),
                   _F(NOM_PARA='CMP',
                      VALE_K='SIZZ',),
                   ),
           )

TEST_TABLE(
           VALE_CALC=2.9260350907111E-3,
           NOM_PARA='VALEUR',
           TABLE=SOLNL2,
           FILTRE=(_F(NOM_PARA='INST',
                      VALE=5.0E-3,),
                   _F(NOM_PARA='CMP',
                      VALE_K='V3',),
                   ),
           )

TBEPZZ=CALC_TABLE(TABLE = SOLNL2,
               ACTION =_F(OPERATION='FILTRE',
                          NOM_PARA='CMP',CRIT_COMP='EQ',VALE_K='EPZZ'))


FEPZZ=RECU_FONCTION(TABLE=TBEPZZ,
                   PARA_X='INST',
                   PARA_Y='VALEUR',
                   INTERPOL='LIN');

TBSIZZ=CALC_TABLE(TABLE = SOLNL2,
               ACTION =_F(OPERATION='FILTRE',
                          NOM_PARA='CMP',CRIT_COMP='EQ',VALE_K='SIZZ'))


FSIZZ=RECU_FONCTION(TABLE=TBSIZZ,
                   PARA_X='INST',
                   PARA_Y='VALEUR',
                   INTERPOL='LIN');


IMPR_FONCTION(
            COURBE=(
                    _F( FONC_X=FEPZZ,
                        FONC_Y=FSIZZ),
                        ),
            );

FIN()
