# TITRE BLOC AVEC INTERFACE EN CONTACT FROTTANT AVEC X-FEM
# ======================================================================
# COPYRIGHT (C) 1991 - 2012  EDF R&D                  WWW.CODE-ASTER.ORG
# THIS PROGRAM IS FREE SOFTWARE; YOU CAN REDISTRIBUTE IT AND/OR MODIFY
# IT UNDER THE TERMS OF THE GNU GENERAL PUBLIC LICENSE AS PUBLISHED BY
# THE FREE SOFTWARE FOUNDATION; EITHER VERSION 2 OF THE LICENSE, OR
# (AT YOUR OPTION) ANY LATER VERSION.
#
# THIS PROGRAM IS DISTRIBUTED IN THE HOPE THAT IT WILL BE USEFUL, BUT
# WITHOUT ANY WARRANTY; WITHOUT EVEN THE IMPLIED WARRANTY OF
# MERCHANTABILITY OR FITNESS FOR A PARTICULAR PURPOSE. SEE THE GNU
# GENERAL PUBLIC LICENSE FOR MORE DETAILS.
#
# YOU SHOULD HAVE RECEIVED A COPY OF THE GNU GENERAL PUBLIC LICENSE
# ALONG WITH THIS PROGRAM; IF NOT, WRITE TO EDF R&D CODE_ASTER,
#    1 AVENUE DU GENERAL DE GAULLE, 92141 CLAMART CEDEX, FRANCE.
# ======================================================================

DEBUT(CODE=_F(
NIV_PUB_WEB='INTERNET'),DEBUG=_F(SDVERI='OUI'))

MAILLAG2=LIRE_MAILLAGE(FORMAT='MED',INFO=1);

MAILLAG2=DEFI_GROUP(reuse =MAILLAG2,
                    MAILLAGE=MAILLAG2,
                    CREA_GROUP_NO=_F(NOM='VOLQUAD',
                                     GROUP_MA='VOL'));

MODELEIN=AFFE_MODELE(MAILLAGE=MAILLAG2,
                     AFFE=(_F(GROUP_MA=('VOL'),
                              PHENOMENE='MECANIQUE',
                              MODELISATION='3D'),
                           _F(GROUP_MA=('SURFINF','SURFSUP'),
                              PHENOMENE='MECANIQUE',
                              MODELISATION='3D')));

PENTE=0.0
B=10.-10.*PENTE

LN=FORMULE(NOM_PARA=('X','Y','Z'),VALE='Z-PENTE*Y-B');
FISS=DEFI_FISS_XFEM(MAILLAGE=MAILLAG2,
                    TYPE_DISCONTINUITE='INTERFACE',
                    DEFI_FISS=_F(FONC_LN=LN));

MODELEK=MODI_MODELE_XFEM(MODELE_IN=MODELEIN,
                         FISSURE=FISS,
                         CONTACT='STANDARD',
                         INFO=1);



CTXFEM = DEFI_CONTACT(MODELE         = MODELEK,
                      FORMULATION    = 'XFEM',
                      FROTTEMENT     = 'COULOMB',
                      ITER_FROT_MAXI = 6,
                      ITER_CONT_MAXI = 4,
                      REAC_GEOM      = 'SANS',ELIM_ARETE     = 'ELIM',
                      ZONE=(
                            _F(
                               FISS_MAIT    = FISS,
                               INTEGRATION  = 'GAUSS',
                               CONTACT_INIT = 'OUI',
                               COULOMB      = 1.0,
                               ALGO_CONT    = 'STANDARD',
                               COEF_CONT    = 100.,
                               ALGO_FROT    = 'STANDARD',
                               COEF_FROT    = 1000.,
                               SEUIL_INIT   = -1.E11,
                             ),
                         ),
                   );


CHLN=CREA_CHAMP(TYPE_CHAM='NOEU_NEUT_R',
                OPERATION='EXTR',
                NOM_CHAM='LNNO',
                     FISSURE=FISS);

IMPR_RESU(FORMAT='IDEAS',
          UNITE=30,
          RESU=_F(MAILLAGE=MAILLAG2,
                  CHAM_GD=CHLN));




E=100.0E6
nu=0.
ACIER=DEFI_MATERIAU(ELAS=_F(E=E,
                            NU=nu,
                            RHO=7800.0));

CHAMPMAT=AFFE_MATERIAU(MAILLAGE=MAILLAG2,
                       MODELE=MODELEK,
                       AFFE=_F(GROUP_MA=('VOL','SURFINF','SURFSUP'),
                                MATER=ACIER));

CH1=AFFE_CHAR_MECA(MODELE=MODELEK,
                   DDL_IMPO=(_F(GROUP_MA='SURFINF',
                                          DX=0.0,
                                                    DY=0.0,
                                                    DZ=0.0),
                                       _F(GROUP_MA='SURFSUP',
                                          DX=0.0,
                                                      DY=0.0,
                                                    DZ=-1.E-6)),
                    INFO=1);


L_INST=DEFI_LIST_REEL(DEBUT=0.0,
                      INTERVALLE=_F(JUSQU_A=1.0,
                                    NOMBRE=1));

UTOT1=STAT_NON_LINE(MODELE=MODELEK,
                   CHAM_MATER=CHAMPMAT,
                   EXCIT=(_F(CHARGE=CH1),),
                   CONTACT  =CTXFEM,
                   COMPORTEMENT=_F(RELATION='ELAS',
                                GROUP_MA='VOL'),
                   NEWTON=_F(REAC_ITER=1),
                   INCREMENT=_F(LIST_INST=L_INST),
                   SOLVEUR=_F(METHODE='MUMPS'),
                   ARCHIVAGE=_F(CHAM_EXCLU='VARI_ELGA'),
                   INFO=1);


LAG=POST_RELEVE_T(ACTION=_F(INTITULE='DEPLE',

                           # maillage 5_20_20
                             NOEUD=('N2493','N2043','N2042','N2041','N2040','N2039','N2038','N2037',
                                    'N2036','N2035','N2034','N2033','N2032','N2031','N2030','N2029',
                                    'N2028','N2027','N2026','N2025','N2492','N2044','N811','N810',
                                    'N809','N808','N807','N806','N805','N804','N803','N802',
                                    'N801','N800','N799','N798','N797','N796','N795','N794',
                                    'N793','N2024','N2045','N812','N847','N846','N845','N844',
                                    'N843','N842','N841','N840','N839','N838','N837','N836',
                                    'N835','N834','N833','N832','N831','N792','N2023','N2046',
                                    'N813','N814','N815','N816','N817','N818','N819','N820',
                                    'N821','N822','N823','N824','N825','N826','N827','N828',
                                    'N829','N830','N791','N2022','N771','N772','N773','N774',
                                    'N775','N776','N777','N778','N779','N780','N781','N782',
                                    'N783','N784','N785','N786','N787','N788','N789','N790',
                                    'N2021','N2001','N2002','N2003','N2004','N2005','N2006','N2007',
                                    'N2008','N2009','N2010','N2011','N2012','N2013','N2014','N2015',
                                    'N2016','N2017','N2018','N2019','N2020','N2491'),

#                             GROUP_NO='VOLQUAD',
                             RESULTAT=UTOT1,
                             NOM_CHAM='DEPL',
                             NUME_ORDRE=1,
                             NOM_CMP=('LAGS_C','LAGS_F1','LAGS_F2'),
                             OPERATION='EXTRACTION'));



IMPR_TABLE(TABLE=LAG);


VC_0=POST_RELEVE_T(ACTION=_F(INTITULE='VC_O',
                             GROUP_NO='VOLQUAD',
                             RESULTAT=UTOT1,
                             NOM_CHAM='CONT_NOEU',
                             NUME_ORDRE=1,
#                             NOM_CMP=('CONT'),
                             TOUT_CMP='OUI',
                             OPERATION='EXTRACTION'));

IMPR_TABLE(TABLE=VC_0)

LAREF=-5.
LA1REF=0.
LA2REF=0.

# TESTS
TEST_TABLE(CRITERE='RELATIF',
           REFERENCE='ANALYTIQUE',
           PRECISION=9.9999999999999998E-13,
           VALE_CALC=1.0000000000000,
           VALE_REFE=1.0,
           NOM_PARA='R',
           TYPE_TEST='MAX',
           TABLE=VC_0,)

TEST_TABLE(CRITERE='RELATIF',
           REFERENCE='ANALYTIQUE',
           PRECISION=9.9999999999999998E-13,
           VALE_CALC=-4.9999999999999,
           VALE_REFE=-5.0,
           NOM_PARA='LAGS_C',
           TYPE_TEST='MAX',
           TABLE=LAG,)

TEST_TABLE(CRITERE='RELATIF',
           REFERENCE='ANALYTIQUE',
           PRECISION=9.9999999999999998E-13,
           VALE_CALC=-5.0000000000001,
           VALE_REFE=-5.0,
           NOM_PARA='LAGS_C',
           TYPE_TEST='MIN',
           TABLE=LAG,)

TEST_TABLE(CRITERE='ABSOLU',
           REFERENCE='ANALYTIQUE',
           PRECISION=9.9999999999999998E-13,
           VALE_CALC= 8.673834217608E-15,
           VALE_REFE=0.0,
           NOM_PARA='LAGS_F1',
           TYPE_TEST='MAX',
           TABLE=LAG,)

TEST_TABLE(CRITERE='ABSOLU',
           REFERENCE='ANALYTIQUE',
           PRECISION=9.9999999999999998E-13,
           VALE_CALC=-1.395642538483E-14,
           VALE_REFE=0.0,
           NOM_PARA='LAGS_F1',
           TYPE_TEST='MIN',
           TABLE=LAG,)

TEST_TABLE(CRITERE='ABSOLU',
           REFERENCE='ANALYTIQUE',
           PRECISION=9.9999999999999998E-13,
           VALE_CALC= 9.002149956019E-15,
           VALE_REFE=0.0,
           NOM_PARA='LAGS_F2',
           TYPE_TEST='MAX',
           TABLE=LAG,)

TEST_TABLE(CRITERE='ABSOLU',
           REFERENCE='ANALYTIQUE',
           PRECISION=9.9999999999999998E-13,
           VALE_CALC=-1.452328615793E-14,
           VALE_REFE=0.0,
           NOM_PARA='LAGS_F2',
           TYPE_TEST='MIN',
           TABLE=LAG,)

# -------------------------------------------------------------
#            POST-TRAITEMENT POUR LA VISUALISATION X-FEM
# -------------------------------------------------------------

MA_XFEM=POST_MAIL_XFEM(MODELE        = MODELEK,
                       INFO          = 2)

MOD_VISU=AFFE_MODELE(MAILLAGE=MA_XFEM,
                     AFFE=_F(TOUT='OUI',
                              PHENOMENE='MECANIQUE',
                              MODELISATION='3D'))

RES_XFEM=POST_CHAM_XFEM(MODELE_VISU   = MOD_VISU,
                        RESULTAT      = UTOT1,

                        INFO          = 2)

#IMPR_RESU(FORMAT='GMSH',UNITE=81,RESU=_F(RESULTAT=RES_XFEM));


FIN();
