# TITRE BARREAU FISSURE AVEC X-FEM
# ======================================================================
# COPYRIGHT (C) 1991 - 2012  EDF R&D                  WWW.CODE-ASTER.ORG
# THIS PROGRAM IS FREE SOFTWARE; YOU CAN REDISTRIBUTE IT AND/OR MODIFY  
# IT UNDER THE TERMS OF THE GNU GENERAL PUBLIC LICENSE AS PUBLISHED BY  
# THE FREE SOFTWARE FOUNDATION; EITHER VERSION 2 OF THE LICENSE, OR     
# (AT YOUR OPTION) ANY LATER VERSION.                                                    
#                                                                       
# THIS PROGRAM IS DISTRIBUTED IN THE HOPE THAT IT WILL BE USEFUL, BUT   
# WITHOUT ANY WARRANTY; WITHOUT EVEN THE IMPLIED WARRANTY OF            
# MERCHANTABILITY OR FITNESS FOR A PARTICULAR PURPOSE. SEE THE GNU      
# GENERAL PUBLIC LICENSE FOR MORE DETAILS.                              
#                                                                       
# YOU SHOULD HAVE RECEIVED A COPY OF THE GNU GENERAL PUBLIC LICENSE     
# ALONG WITH THIS PROGRAM; IF NOT, WRITE TO EDF R&D CODE_ASTER,         
#    1 AVENUE DU GENERAL DE GAULLE, 92141 CLAMART CEDEX, FRANCE.        
# ======================================================================

DEBUT(CODE=_F(
              NIV_PUB_WEB='INTERNET'),DEBUG=_F(SDVERI='OUI'));
#----------------------------------------------
#                MAILLAGE : ssnv173g.mail
#----------------------------------------------

MAILLAG1=LIRE_MAILLAGE(INFO=1);

MAILLAG1=DEFI_GROUP(reuse =MAILLAG1,
                    MAILLAGE=MAILLAG1,
                    CREA_GROUP_NO=_F(NOM='SURFQUAD',
                                     GROUP_MA='SURF'));

IMPR_RESU(FORMAT='RESULTAT',
          RESU=_F(MAILLAGE=MAILLAG1));

#----------------------------------------------
#                   MODELE ET FISSURE
#----------------------------------------------

MODELEIN=AFFE_MODELE(MAILLAGE=MAILLAG1,
                     AFFE=(_F(GROUP_MA=('SURF'),
                              PHENOMENE='MECANIQUE',
                              MODELISATION='C_PLAN'),
                           ));  

# FORME ANALYTIQUE POUR LA FISSURE

LN=FORMULE(NOM_PARA=('X','Y'),VALE='Y-2.5');

FISS=DEFI_FISS_XFEM(MAILLAGE=MAILLAG1,  
                    TYPE_DISCONTINUITE='INTERFACE',
                    DEFI_FISS=_F(FONC_LN=LN));

MODELEK=MODI_MODELE_XFEM(MODELE_IN=MODELEIN,FISSURE=FISS,INFO=1);
        

#----------------------------------------------
#                   MATERIAU
#----------------------------------------------

E=205000E6
nu=0.3
rho=7800.
ACIER=DEFI_MATERIAU(ELAS=_F(E=E,NU=nu,RHO=rho));

CHAMPMA1=AFFE_MATERIAU(MAILLAGE=MAILLAG1,
                       MODELE=MODELEK,
                       AFFE=_F(GROUP_MA=('SURF'),
                                MATER=ACIER,
                                ),
                             );

#----------------------------------------------
#                   CHARGEMENTS
#----------------------------------------------

DEPY=1.E-6
DEPMILY=DEPY/2.
ZERO=0.0

CH=AFFE_CHAR_MECA(MODELE=MODELEK,
                  DDL_IMPO=(_F(NOEUD=('N1','N2'),
                               DX=0.,DY=0.),
                            _F(NOEUD=('N3','N4'),
                               DX=0.,DY=DEPY)));
#----------------------------------------------
#                   RESOLUTION
#----------------------------------------------

L_INS1=DEFI_LIST_REEL(DEBUT=0.0,INTERVALLE=_F(JUSQU_A=3.0,NOMBRE=3));

UTOT1=MECA_STATIQUE(MODELE=MODELEK,
                   CHAM_MATER=CHAMPMA1,
                   EXCIT=(
                          _F(CHARGE=CH),
                          ),
                   SOLVEUR=_F(   
                            METHODE='MUMPS'),
                   INFO=1,
                   ); 
# -------------------------------------------------------------   
#            POST-TRAITEMENT POUR LA VISUALISATION X-FEM   
# -------------------------------------------------------------   

MA_XFEM=POST_MAIL_XFEM(
                       MODELE        = MODELEK)

MOD_VISU=AFFE_MODELE(MAILLAGE=MA_XFEM,
                     AFFE=_F(TOUT='OUI',
                              PHENOMENE='MECANIQUE',
                              MODELISATION='C_PLAN')) 

RES_XFEM=POST_CHAM_XFEM(MODELE_VISU   = MOD_VISU,
                        RESULTAT      = UTOT1,
                        )
 
#IMPR_RESU(FORMAT='GMSH',UNITE=81,RESU=_F(RESULTAT=RES_XFEM));


# -------------------------------------------------------------   
#            TEST_TABLE
# -------------------------------------------------------------   


DEP=POST_RELEVE_T(ACTION=_F(INTITULE='DEPLE',
                                GROUP_NO=('NFISSU'),
                                RESULTAT=RES_XFEM,
                                NOM_CHAM='DEPL',
                                NUME_ORDRE=1,
                                TOUT_CMP='OUI',
                                OPERATION='EXTRACTION'));

IMPR_TABLE(TABLE=DEP,
           FORMAT='AGRAF',
           FORMAT_R='1PE12.5',
           IMPR_FONCTION='NON');


DEPP = CALC_TABLE(TABLE = DEP,
                  ACTION = (_F(OPERATION = 'FILTRE',
                               NOM_PARA  = 'NOEUD',
                               CRIT_COMP = 'REGEXP',
                               VALE_K    = 'N[^P]')));


DEPM = CALC_TABLE(TABLE = DEP,
                  ACTION = (_F(OPERATION = 'FILTRE',
                               NOM_PARA  = 'NOEUD',
                               CRIT_COMP = 'REGEXP',
                               VALE_K    = 'N[^M]')));


TEST_TABLE(CRITERE='ABSOLU',
           REFERENCE='ANALYTIQUE',
           PRECISION=9.9999999999999998E-17,
           VALE_CALC=-1.1647194002702183E-21,
           VALE_REFE=0.0,
           NOM_PARA='DX',
           TYPE_TEST='MIN',
           TABLE=DEPP,)

TEST_TABLE(CRITERE='ABSOLU',
           REFERENCE='ANALYTIQUE',
           PRECISION=9.9999999999999998E-17,
           VALE_CALC=-1.1637079330930879E-21,
           VALE_REFE=0.0,
           NOM_PARA='DX',
           TYPE_TEST='MAX',
           TABLE=DEPP,)

TEST_TABLE(CRITERE='ABSOLU',
           REFERENCE='ANALYTIQUE',
           PRECISION=9.9999999999999998E-17,
           VALE_CALC=-2.1175823681357508E-22,
           VALE_REFE=0.0,
           NOM_PARA='DY',
           TYPE_TEST='MIN',
           TABLE=DEPP,)

TEST_TABLE(CRITERE='ABSOLU',
           REFERENCE='ANALYTIQUE',
           PRECISION=9.9999999999999998E-17,
           VALE_CALC= 2.6469779601696886E-22,
           VALE_REFE=0.0,
           NOM_PARA='DY',
           TYPE_TEST='MAX',
           TABLE=DEPP,)

TEST_TABLE(CRITERE='ABSOLU',
           REFERENCE='ANALYTIQUE',
           PRECISION=9.9999999999999998E-17,
           VALE_CALC=-2.3689687760714044E-21,
           VALE_REFE=0.0,
           NOM_PARA='DX',
           TYPE_TEST='MIN',
           TABLE=DEPM,)

TEST_TABLE(CRITERE='ABSOLU',
           REFERENCE='ANALYTIQUE',
           PRECISION=9.9999999999999998E-17,
           VALE_CALC=-1.9830853940221646E-21,
           VALE_REFE=0.0,
           NOM_PARA='DX',
           TYPE_TEST='MAX',
           TABLE=DEPM,)

TEST_TABLE(CRITERE='RELATIF',
           REFERENCE='ANALYTIQUE',
           PRECISION=9.9999999999999994E-12,
           VALE_CALC= 1.00000000000E-06,
           VALE_REFE=9.9999999999999995E-07,
           NOM_PARA='DY',
           TYPE_TEST='MIN',
           TABLE=DEPM,)

TEST_TABLE(CRITERE='RELATIF',
           REFERENCE='ANALYTIQUE',
           PRECISION=9.9999999999999994E-12,
           VALE_CALC= 1.00000000000E-06,
           VALE_REFE=9.9999999999999995E-07,
           NOM_PARA='DY',
           TYPE_TEST='MAX',
           TABLE=DEPM,)

FIN();
