# MODIF  DATE 30/07/2012   AUTEUR LEFEBVRE J-P.LEFEBVRE 
# TITRE ETUDE:  ESSAI TRIAXIAL DRAINE (MECA PUR) AVEC LA LOI DE HUJEUX
# ssnv197c.para = tps_job 100 mem_job 512Mo ncpus 1 liste_test S
#            CONFIGURATION MANAGEMENT OF EDF VERSION
# ======================================================================
# COPYRIGHT (C) 1991 - 2012  EDF R&D                  WWW.CODE-ASTER.ORG
# THIS PROGRAM IS FREE SOFTWARE; YOU CAN REDISTRIBUTE IT AND/OR MODIFY
# IT UNDER THE TERMS OF THE GNU GENERAL PUBLIC LICENSE AS PUBLISHED BY
# THE FREE SOFTWARE FOUNDATION; EITHER VERSION 2 OF THE LICENSE, OR
# (AT YOUR OPTION) ANY LATER VERSION.
#
# THIS PROGRAM IS DISTRIBUTED IN THE HOPE THAT IT WILL BE USEFUL, BUT
# WITHOUT ANY WARRANTY; WITHOUT EVEN THE IMPLIED WARRANTY OF
# MERCHANTABILITY OR FITNESS FOR A PARTICULAR PURPOSE. SEE THE GNU
# GENERAL PUBLIC LICENSE FOR MORE DETAILS.
#
# YOU SHOULD HAVE RECEIVED A COPY OF THE GNU GENERAL PUBLIC LICENSE
# ALONG WITH THIS PROGRAM; IF NOT, WRITE TO EDF R&D CODE_ASTER,
#    1 AVENUE DU GENERAL DE GAULLE, 92141 CLAMART CEDEX, FRANCE.
# ======================================================================
# PRESSION DE CONSOLITDATION P0 = 200KPA


DEBUT(CODE=_F(NOM='SSNV197C', NIV_PUB_WEB='INTERNET', VISU_EFICAS='NON'), DEBUG=_F(SDVERI='OUI'))

# modules mecaniques [kPa]
K=516.2E6
G=238.2E6
# =>
YOUNG = 9.*K*G /(3.*K+G)
POISSON = (3.*K-2.*G) /(6.*K+2.*G)

print 'young=',YOUNG,' /// nu=',POISSON

# pression de preconsolidation [en kPa]
P0=200.E3


#***********************************************************************
#    MAILLAGE + MODELE
#***********************************************************************
MAILLAGE=LIRE_MAILLAGE(FORMAT='MED', );

MODELE=AFFE_MODELE(MAILLAGE=MAILLAGE,
                   AFFE=_F(TOUT         = 'OUI',
                           PHENOMENE    = 'MECANIQUE',
                           MODELISATION = '3D'));

MAILLAGE=MODI_MAILLAGE(reuse =MAILLAGE,
                       MAILLAGE=MAILLAGE,
                       ORIE_PEAU_3D=_F(GROUP_MA=('DEVANT','DROIT','ARRIERE','GAUCHE','BAS','HAUT','APPUI','COTE')),
                       INFO=1);


#***********************************************************************
#    INCREMENTS DE TEMPS
#***********************************************************************
TEMPS0=DEFI_LIST_REEL(DEBUT=-1.,
                      INTERVALLE=(_F(JUSQU_A = 0., NOMBRE = 1),));

TEMPS1=DEFI_LIST_REEL(DEBUT=0.,
                      INTERVALLE=(_F(JUSQU_A =  1., NOMBRE = 10),
                                  _F(JUSQU_A =  7., NOMBRE = 60),
                                  _F(JUSQU_A = 10., NOMBRE = 30)));

#***********************************************************************
#    MATERIAU : SOL
#***********************************************************************
SOL0=DEFI_MATERIAU(ELAS=_F(E = YOUNG, NU = POISSON),
                  HUJEUX=_F(N        = 0.4,
                            BETA     = 24.,
                            D        = 2.5,
                            B        = .2,
                            PHI      = 33.,
                            ANGDIL   = 33.,
                            PCO      = -1.E6,
                            PREF     = -1.E6,
                            AMON     = 0.008,
                            ACYC     = 0.0001,
                            CMON     = 0.2,
                            CCYC     = 0.1,
                            RD_ELA   = 0.005,
                            RI_ELA   = 0.001,
                            RHYS     = 0.05,
                            RMOB     = 0.9,
                            XM       = 1.,
                            RD_CYC   = 0.005,
                            RI_CYC   = 0.001,
                            DILA     = 1.0,));

SOL=DEFI_MATERIAU(ELAS=_F(E = YOUNG, NU = POISSON),
                  HUJEUX=_F(N        = 0.4,
                            BETA     = 24.,
                            D        = 2.5,
                            B        = .2,
                            PHI      = 33.,
                            ANGDIL   = 33.,
                            PCO      = -1.E6,
                            PREF     = -1.E6,
                            AMON     = 0.008,
                            ACYC     = 0.0001,
                            CMON     = 0.2,
                            CCYC     = 0.1,
                            RD_ELA   = 0.005,
                            RI_ELA   = 0.001,
                            RHYS     = 0.05,
                            RMOB     = 0.9,
                            XM       = 1.,
                            RD_CYC   = 0.005,
                            RI_CYC   = 0.001,
                            DILA     = 1.0,));

CHMAT0=AFFE_MATERIAU(MAILLAGE=MAILLAGE,
                     AFFE=_F(TOUT='OUI', MATER=SOL0));

CHMAT=AFFE_MATERIAU(MAILLAGE=MAILLAGE,
                    AFFE=_F(TOUT='OUI', MATER=SOL));


#***********************************************************************
#    CHARGEMENT MECANIQUE : FORCE DE COMPRESSION + DDL IMPOSES
#***********************************************************************
CHAR_U1=AFFE_CHAR_MECA(MODELE=MODELE,
                       PRES_REP=_F(GROUP_MA='COTE',
                                   PRES = 1.));

CHAR_U2=AFFE_CHAR_MECA(MODELE=MODELE,
                       PRES_REP=_F(GROUP_MA='APPUI',
                                   PRES = 1.));

CHAR_U3=AFFE_CHAR_MECA(MODELE=MODELE,
                       FACE_IMPO=_F(GROUP_MA='APPUI',DZ = -1.));

DEPL_1=AFFE_CHAR_MECA(MODELE=MODELE,
                FACE_IMPO=(_F(GROUP_MA='BAS',DZ = 0.),
                           _F(GROUP_MA='GAUCHE',DX = 0.),
                           _F(GROUP_MA='DEVANT',DY = 0.)));

COEF0=DEFI_FONCTION(NOM_PARA='INST',
                    PROL_DROITE='CONSTANT',
                    VALE=(-1.0, 0.0,
                           0. , P0 ));

COEF3=DEFI_FONCTION(NOM_PARA='INST',
                    PROL_DROITE='CONSTANT',
                    VALE=( 0.0, 0.0,
                          10.0, .2));

DEFLIST =DEFI_LIST_INST(DEFI_LIST=_F(LIST_INST = TEMPS1),
                        ECHEC=_F(ACTION        = 'DECOUPE',
                                 SUBD_METHODE  = 'MANUEL',
                                 SUBD_PAS=10,
                                 SUBD_PAS_MINI =0.00001 ),)

#***********************************************************************
#    PRECONSOLIDATION ELASTIQUE JUSQU'A 200KPA
#***********************************************************************
U0M=STAT_NON_LINE(MODELE=MODELE,
                 CHAM_MATER=CHMAT0,
                 EXCIT=(_F(CHARGE    = CHAR_U1,
                           FONC_MULT = COEF0),
                        _F(CHARGE    = CHAR_U2,
                           FONC_MULT = COEF0),
                        _F(CHARGE    = DEPL_1)),
                 COMP_INCR=_F(RELATION = 'ELAS'),
                 NEWTON=_F(MATRICE = 'ELASTIQUE'),
                 CONVERGENCE=_F(RESI_GLOB_RELA = 1.E-6,
                                ITER_GLOB_MAXI = 20),
                 INCREMENT=_F(LIST_INST = TEMPS0, INST_FIN = 0.));
# ----------- FIN

SIG0=CREA_CHAMP(INFO=2,
                TYPE_CHAM='ELGA_SIEF_R',
                OPERATION='EXTR',
                RESULTAT=U0M,
                NOM_CHAM='SIEF_ELGA',
                INST=0.0,);


#***********************************************************************
#    ESSAI TRIAXIAL
#***********************************************************************
U1=STAT_NON_LINE(MODELE=MODELE,
                 CHAM_MATER=CHMAT,
                 EXCIT=(_F(CHARGE      = CHAR_U1,
                           FONC_MULT   = COEF0),
                        _F(CHARGE      = CHAR_U3,
                           TYPE_CHARGE ='DIDI',
                           FONC_MULT   = COEF3),
                        _F(CHARGE      = DEPL_1)),
                 ETAT_INIT=_F(SIGM=SIG0,),
                 COMP_INCR=_F(RELATION = 'HUJEUX',
                              #TYPE_MATR_TANG='PERTURBATION',
                              RESI_INTE_RELA = 1.E-8,
                              ITER_INTE_PAS = -5,
                              ITER_INTE_MAXI = 20,),
                 NEWTON=_F(MATRICE = 'TANGENTE',REAC_ITER=1),
                 CONVERGENCE=_F(RESI_GLOB_RELA = 1.E-6,
                                ITER_GLOB_MAXI = 10),
                 ARCHIVAGE =_F(LIST_INST=TEMPS1,),
                 INCREMENT=_F(LIST_INST = DEFLIST,
                              INST_INIT=0.0,
                              INST_FIN =10.));


#-------------------------
#    TEST_RESU AU POINT C
#-------------------------
U1=CALC_CHAMP(reuse=U1,CONTRAINTE=('SIGM_ELNO'),VARI_INTERNE=('VARI_ELNO'),DEFORMATION=('EPSI_ELNO'),RESULTAT=U1)


U1=CALC_CHAMP(reuse=U1,

           CONTRAINTE='SIGM_NOEU',VARI_INTERNE='VARI_NOEU',DEFORMATION='EPSI_NOEU',
           RESULTAT=U1);


TAB_SIG=POST_RELEVE_T(ACTION=_F(INTITULE='EQUI_NOEU_DEPL',
                                GROUP_NO='C',
                                RESULTAT=U1,
                                NOM_CHAM='SIGM_NOEU',
                                INVARIANT='OUI',
                                OPERATION='EXTRACTION'));

TAB_VARI=POST_RELEVE_T(ACTION=_F(INTITULE='VARI_NOEU',
                                GROUP_NO='C',
                                RESULTAT=U1,
                                NOM_CHAM='VARI_NOEU',
                                NOM_CMP=('V1','V2','V3','V4','V5','V6','V7','V8','V23','V32'),
                                OPERATION='EXTRACTION'));

TAB_EPSZ=POST_RELEVE_T(ACTION=_F(INTITULE='EPSI_NOEU',
                                GROUP_NO='C',
                                RESULTAT=U1,
                                NOM_CHAM='EPSI_NOEU',
                                NOM_CMP='EPZZ',
                                OPERATION='EXTRACTION'));

TAB_EPSV=POST_RELEVE_T(ACTION=_F(INTITULE='EPSI_VOLU',
                                GROUP_NO='C',
                                RESULTAT=U1,
                                NOM_CHAM='EPSI_NOEU',
                                INVARIANT='OUI',
                                OPERATION='EXTRACTION'));

TAB_SIG=CALC_TABLE(reuse=TAB_SIG,
                   TABLE=TAB_SIG,
                   ACTION=_F(OPERATION='COMB',
                             TABLE=TAB_EPSZ,
                             NOM_PARA='INST'));

TAB_EPSV=CALC_TABLE(reuse=TAB_EPSV,
                    TABLE=TAB_EPSV,
                    ACTION=_F(OPERATION='COMB',
                              TABLE=TAB_EPSZ,
                              NOM_PARA='INST'));

TAB_VARI=CALC_TABLE(reuse=TAB_VARI,
                    TABLE=TAB_VARI,
                    ACTION=_F(OPERATION='COMB',
                              TABLE=TAB_EPSZ,
                              NOM_PARA='INST'));

# TEST DE LA NORME DU DEVIATEUR DES CONTRAINTES PAR RAPPORT AUX REFERENCES LAWYER
TEST_TABLE(TABLE=TAB_SIG,
           NOM_PARA='VMIS',
           VALE=311459,
           PRECISION=0.02,
           CRITERE='RELATIF',
           REFERENCE='SOURCE_EXTERNE',
           FILTRE=_F(NOM_PARA='EPZZ',
                     VALE=-0.01,
                     PRECISION=.00009,
                     CRITERE='ABSOLU'));

TEST_TABLE(TABLE=TAB_SIG,
           NOM_PARA='VMIS',
           VALE=416832,
           PRECISION=0.02,
           CRITERE='RELATIF',
           REFERENCE='SOURCE_EXTERNE',
           FILTRE=_F(NOM_PARA='EPZZ',
                     VALE=-0.02,
                     PRECISION=.00009,
                     CRITERE='ABSOLU'));

TEST_TABLE(TABLE=TAB_SIG,
           NOM_PARA='VMIS',
           VALE=545338,
           PRECISION=0.01,
           CRITERE='RELATIF',
           REFERENCE='SOURCE_EXTERNE',
           FILTRE=_F(NOM_PARA='EPZZ',
                     VALE=-0.05,
                     PRECISION=.00009,
                     CRITERE='ABSOLU'));

TEST_TABLE(TABLE=TAB_SIG,
           NOM_PARA='VMIS',
           VALE=605666,
           PRECISION=0.01,
           CRITERE='RELATIF',
           REFERENCE='SOURCE_EXTERNE',
           FILTRE=_F(NOM_PARA='EPZZ',
                     VALE=-0.1,
                     PRECISION=.00009,
                     CRITERE='ABSOLU'));

TEST_TABLE(TABLE=TAB_SIG,
           NOM_PARA='VMIS',
           VALE=616946,
           PRECISION=0.01,
           CRITERE='RELATIF',
           REFERENCE='SOURCE_EXTERNE',
           FILTRE=_F(NOM_PARA='EPZZ',
                     VALE=-0.2,
                     PRECISION=.00009,
                     CRITERE='ABSOLU'));


# TEST DE LA DEFORMATION VOLUMIQUE TOTALE PAR RAPPORT AUX REFERENCES LAWYER
TEST_TABLE(TABLE=TAB_EPSV,
           NOM_PARA='TRACE',
           VALE=-.00747,
           PRECISION=0.02,
           CRITERE='RELATIF',
           REFERENCE='SOURCE_EXTERNE',
           FILTRE=_F(NOM_PARA='EPZZ',
                     VALE=-0.01,
                     PRECISION=.00009,
                     CRITERE='ABSOLU'));

TEST_TABLE(TABLE=TAB_EPSV,
           NOM_PARA='TRACE',
           VALE=-.01005,
           PRECISION=0.01,
           CRITERE='RELATIF',
           REFERENCE='SOURCE_EXTERNE',
           FILTRE=_F(NOM_PARA='EPZZ',
                     VALE=-0.02,
                     PRECISION=.00009,
                     CRITERE='ABSOLU'));

TEST_TABLE(TABLE=TAB_EPSV,
           NOM_PARA='TRACE',
           VALE=-.01227,
           PRECISION=0.01,
           CRITERE='RELATIF',
           REFERENCE='SOURCE_EXTERNE',
           FILTRE=_F(NOM_PARA='EPZZ',
                     VALE=-0.05,
                     PRECISION=.00009,
                     CRITERE='ABSOLU'));

TEST_TABLE(TABLE=TAB_EPSV,
           NOM_PARA='TRACE',
           VALE=-.01092,
           PRECISION=0.01,
           CRITERE='RELATIF',
           REFERENCE='SOURCE_EXTERNE',
           FILTRE=_F(NOM_PARA='EPZZ',
                     VALE=-0.1,
                     PRECISION=.00009,
                     CRITERE='ABSOLU'));

TEST_TABLE(TABLE=TAB_EPSV,
           NOM_PARA='TRACE',
           VALE=-.00488,
           PRECISION=0.01,
           CRITERE='RELATIF',
           REFERENCE='SOURCE_EXTERNE',
           FILTRE=_F(NOM_PARA='EPZZ',
                     VALE=-0.2,
                     PRECISION=.00009,
                     CRITERE='ABSOLU'));


# TEST DU COEF D ECROUISSAGE DEVIATOIRE PAR RAPPORT AUX REFERENCES LAWYER
TEST_TABLE(TABLE=TAB_VARI,
           NOM_PARA='V1',
           VALE=.648,
           PRECISION=0.01,
           CRITERE='RELATIF',
           REFERENCE='SOURCE_EXTERNE',
           FILTRE=_F(NOM_PARA='EPZZ',
                     VALE=-0.01,
                     PRECISION=.00009,
                     CRITERE='ABSOLU'));

TEST_TABLE(TABLE=TAB_VARI,
           NOM_PARA='V1',
           VALE=.765,
           PRECISION=0.01,
           CRITERE='RELATIF',
           REFERENCE='SOURCE_EXTERNE',
           FILTRE=_F(NOM_PARA='EPZZ',
                     VALE=-0.02,
                     PRECISION=.00009,
                     CRITERE='ABSOLU'));

TEST_TABLE(TABLE=TAB_VARI,
           NOM_PARA='V1',
           VALE=.878,
           PRECISION=0.01,
           CRITERE='RELATIF',
           REFERENCE='SOURCE_EXTERNE',
           FILTRE=_F(NOM_PARA='EPZZ',
                     VALE=-0.05,
                     PRECISION=.00009,
                     CRITERE='ABSOLU'));

TEST_TABLE(TABLE=TAB_VARI,
           NOM_PARA='V1',
           VALE=.932,
           PRECISION=0.01,
           CRITERE='RELATIF',
           REFERENCE='SOURCE_EXTERNE',
           FILTRE=_F(NOM_PARA='EPZZ',
                     VALE=-0.1,
                     PRECISION=.00009,
                     CRITERE='ABSOLU'));

TEST_TABLE(TABLE=TAB_VARI,
           NOM_PARA='V1',
           VALE=.964,
           PRECISION=0.01,
           CRITERE='RELATIF',
           REFERENCE='SOURCE_EXTERNE',
           FILTRE=_F(NOM_PARA='EPZZ',
                     VALE=-0.2,
                     PRECISION=.00009,
                     CRITERE='ABSOLU'));


# TEST DU COEF D ECROUISSAGE ISOTROPE PAR RAPPORT AUX REFERENCES LAWYER
TEST_TABLE(TABLE=TAB_VARI,
           NOM_PARA='V4',
           VALE=.102,
           PRECISION=0.01,
           CRITERE='RELATIF',
           REFERENCE='SOURCE_EXTERNE',
           FILTRE=_F(NOM_PARA='EPZZ',
                     VALE=-0.01,
                     PRECISION=.00009,
                     CRITERE='ABSOLU'));

TEST_TABLE(TABLE=TAB_VARI,
           NOM_PARA='V4',
           VALE=.108,
           PRECISION=0.01,
           CRITERE='RELATIF',
           REFERENCE='SOURCE_EXTERNE',
           FILTRE=_F(NOM_PARA='EPZZ',
                     VALE=-0.02,
                     PRECISION=.00009,
                     CRITERE='ABSOLU'));

TEST_TABLE(TABLE=TAB_VARI,
           NOM_PARA='V4',
           VALE=.115,
           PRECISION=0.01,
           CRITERE='RELATIF',
           REFERENCE='SOURCE_EXTERNE',
           FILTRE=_F(NOM_PARA='EPZZ',
                     VALE=-0.05,
                     PRECISION=.00009,
                     CRITERE='ABSOLU'));

TEST_TABLE(TABLE=TAB_VARI,
           NOM_PARA='V4',
           VALE=.126,
           PRECISION=0.01,
           CRITERE='RELATIF',
           REFERENCE='SOURCE_EXTERNE',
           FILTRE=_F(NOM_PARA='EPZZ',
                     VALE=-0.1,
                     PRECISION=.00009,
                     CRITERE='ABSOLU'));

TEST_TABLE(TABLE=TAB_VARI,
           NOM_PARA='V4',
           VALE=.147,
           PRECISION=0.01,
           CRITERE='RELATIF',
           REFERENCE='SOURCE_EXTERNE',
           FILTRE=_F(NOM_PARA='EPZZ',
                     VALE=-0.2,
                     PRECISION=.00009,
                     CRITERE='ABSOLU'));
FIN();
