# TITRE CYLINDRE EN INCOMPRESSIBLE (TETRA10) GRANDES DEFORMATIONS
#            CONFIGURATION MANAGEMENT OF EDF VERSION
# ======================================================================
# COPYRIGHT (C) 1991 - 2013  EDF R&D                  WWW.CODE-ASTER.ORG
# THIS PROGRAM IS FREE SOFTWARE; YOU CAN REDISTRIBUTE IT AND/OR MODIFY
# IT UNDER THE TERMS OF THE GNU GENERAL PUBLIC LICENSE AS PUBLISHED BY
# THE FREE SOFTWARE FOUNDATION; EITHER VERSION 2 OF THE LICENSE, OR
# (AT YOUR OPTION) ANY LATER VERSION.
#
# THIS PROGRAM IS DISTRIBUTED IN THE HOPE THAT IT WILL BE USEFUL, BUT
# WITHOUT ANY WARRANTY; WITHOUT EVEN THE IMPLIED WARRANTY OF
# MERCHANTABILITY OR FITNESS FOR A PARTICULAR PURPOSE. SEE THE GNU
# GENERAL PUBLIC LICENSE FOR MORE DETAILS.
#
# YOU SHOULD HAVE RECEIVED A COPY OF THE GNU GENERAL PUBLIC LICENSE
# ALONG WITH THIS PROGRAM; IF NOT, WRITE TO EDF R&D CODE_ASTER,
#    1 AVENUE DU GENERAL DE GAULLE, 92141 CLAMART CEDEX, FRANCE.
# ======================================================================
# ----------------------------------------------------------------------
#
# CYLINDRE CREUX EN INCOMPRESSIBLE GRANDES DEFORMATIONS(NU=0.4999)
# SOUS DEPLACEMENT RADIAL (U0=6.10E-5)
#
# MODELISATION : ELEMENTS MECANIQUE 3D INCOMP.(TETRA10)
# MAILLAGE     : GMSH
# ----------------------------------------------------------------------
# GROUPES DE NOEUDS ET MAILLES :
# GRNO: A B  F
# GRMA: FACEEF     FACEAE   FACEAB   FACESUP   FACEINF
# person_in_charge: sebastien.fayolle at edf.fr

DEBUT(CODE=_F(NOM='SSNV112L',
              NIV_PUB_WEB='INTERNET'),
      DEBUG=_F(SDVERI='OUI'));

PRE_GMSH();

M1=LIRE_MAILLAGE();

M=CREA_MAILLAGE(MAILLAGE=M1,
                LINE_QUAD=_F(TOUT='OUI'));

M=DEFI_GROUP(reuse =M,
             MAILLAGE=M,
             CREA_GROUP_MA=(_F(NOM='VOLUME',
                               GROUP_MA='GM8'),
                            _F(NOM='FACEEF',
                               GROUP_MA='GM7'),
                            _F(NOM='FACEAE',
                               GROUP_MA='GM6'),
                            _F(NOM='FACEAB',
                               GROUP_MA='GM5'),
                            _F(NOM='FACSUP',
                               GROUP_MA='GM4'),
                            _F(NOM='FACINF',
                               GROUP_MA='GM3')),
             CREA_GROUP_NO=(_F(GROUP_MA='GM1',
                               NOM='A'),
                            _F(GROUP_MA='GM2',
                               NOM='F')));

MO=AFFE_MODELE(MAILLAGE=M,
               VERIF='MAILLE',
               AFFE=_F(GROUP_MA=('VOLUME','FACEEF','FACEAE'),
                       PHENOMENE='MECANIQUE',
                       MODELISATION='3D_INCO_LUP'));

M=MODI_MAILLAGE(reuse =M,
                MAILLAGE=M,
                ORIE_PEAU_3D=_F(GROUP_MA=('FACEEF','FACEAE','FACEAB','FACSUP','FACINF')));

MA=DEFI_MATERIAU(ELAS=_F(E=200000.,
                         NU=0.49999,
                         ALPHA=0.),
                 ECRO_LINE=_F(D_SIGM_EPSI=0.,
                              SY=1.E10));

CM=AFFE_MATERIAU(MAILLAGE=M,
                 AFFE=_F(TOUT='OUI',
                         MATER=MA));

CH=AFFE_CHAR_MECA(MODELE=MO,
                  DDL_IMPO=(_F(GROUP_MA='FACEAB',
                               DY=0.),
                            _F(GROUP_MA='FACSUP',
                               DZ=0.),
                            _F(GROUP_MA='FACINF',
                               DZ=0.)),
                  FACE_IMPO=(_F(GROUP_MA='FACEEF',
                                DNOR=0.),
                             _F(GROUP_MA='FACEAE',
                                DNOR=-6.E-5)));

# DXF = DEFI_FONCTION (NOM_PARA = 'X',
#                      VALE = (0.1, 0., 0.2, 6.E-4 ))
# DYF = DEFI_FONCTION (NOM_PARA = 'Y',
#                      VALE = (0.1, 0., 0.2, 6.E-4 ))
# DX0 = DEFI_FONCTION (NOM_PARA = 'X',
#                      VALE = (0.0, 0., 0.2, 0. ))
# DY0 = DEFI_FONCTION (NOM_PARA = 'Y',
#                      VALE = (0.0, 0., 0.1, 0. ))
# CH2=AFFE_CHAR_MECA_F(MODELE=MO,
#                      FACE_IMPO=(_F(GROUP_MA='FACEAE', DX = DXF , DY= DYF ),
#                                 _F( GROUP_MA = 'FACEEF',DNOR = DX0),
#                                 _F( GROUP_MA = 'FACEAB', DNOR = DX0)))

INSTANTS=DEFI_LIST_REEL(DEBUT=0.,
                        INTERVALLE=_F(JUSQU_A=1.,
                                      NOMBRE=1));

RAMPE=DEFI_FONCTION(NOM_PARA='INST',VALE=(0.,0.,
                          1.,1.,
                          ));

DEFLIST=DEFI_LIST_INST(DEFI_LIST=_F(LIST_INST = INSTANTS));

# LES SYSTEMES LINEAIRES SONT DIFFICILES A RESOUDRE.
# ON DEVERROUILLE LA DETECTION DE SINGULARITE. LE PROCESSUS DE NEWTON
# CORRIGE LES EVENTUELLES DERIVES.
EVOL=STAT_NON_LINE(MODELE=MO,
                   CHAM_MATER=CM,
                   EXCIT=_F(CHARGE=CH,
                            FONC_MULT=RAMPE),
                   COMP_INCR=_F(RELATION='VMIS_ISOT_LINE',
                                DEFORMATION='GDEF_LOG'),
                   INCREMENT=_F(LIST_INST=DEFLIST),
                   NEWTON=_F(REAC_ITER=1),
                  CONVERGENCE=_F(SIGM_REFE=60.0,
                                 EPSI_REFE=3.E-4,
                                 RESI_REFE_RELA=1.E-3),
                   SOLVEUR=_F(METHODE='MUMPS',
   NPREC=-1));

# REMARQUE : STRICTO SENSU, LE CALCUL DE ERME_ELEM EST FAUX CAR
#            DES BORDS A CONTRAINTE NULLE N'ONT PAS ETE DEFINIS DANS LE
#            MAILLAGE ET A FORTIORI DANS LE CHARGEMENT
#            IL FAUDRA COMPLETER LE MAILLAGE UN JOUR. G. NICOLAS.
EVOL=CALC_CHAMP(reuse=EVOL,RESULTAT=EVOL,CRITERES=('SIEQ_ELNO'),CONTRAINTE=('SIGM_ELNO'))


EVOL=CALC_ERREUR(reuse =EVOL,
                 RESULTAT=EVOL,
                 OPTION=('ERME_ELEM','ERME_ELNO'));

EVOL=CALC_CHAMP(reuse =EVOL,
             RESULTAT=EVOL,
             CONTRAINTE='SIGM_NOEU',CRITERES='SIEQ_NOEU');

#--------------------------------------------------------------
#       COMPARAISON DES RESULTATS A LA SOLUTION ANALYTIQUE
#        POUR UN  SOLIDE INCOMPRESSIBLE NU = 0.5
#---------------------------------------------------------------

#     DEPLACEMENTS
TEST_RESU(RESU=(_F(GROUP_NO='A',
                   INST=1.0,
                   REFERENCE='ANALYTIQUE',
                   RESULTAT=EVOL,
                   NOM_CHAM='DEPL',
                   NOM_CMP='DY',
                   VALE_CALC=0.0E+00,
                   VALE_REFE=0.0,
                   CRITERE='ABSOLU',),
                _F(GROUP_NO='A',
                   INST=1.0,
                   REFERENCE='ANALYTIQUE',
                   RESULTAT=EVOL,
                   NOM_CHAM='DEPL',
                   NOM_CMP='DX',
                   VALE_CALC=6.0094539827568E-05,
                   VALE_REFE=6.E-05,
                   CRITERE='RELATIF',
                   PRECISION=2.E-3,),
                _F(GROUP_NO='F',
                   INST=1.0,
                   REFERENCE='ANALYTIQUE',
                   RESULTAT=EVOL,
                   NOM_CHAM='DEPL',
                   NOM_CMP='DY',
                   VALE_CALC=2.1197556491378E-05,
                   VALE_REFE=2.1217941E-05,
                   CRITERE='RELATIF',
                   PRECISION=1.E-3,),
                _F(GROUP_NO='F',
                   INST=1.0,
                   REFERENCE='ANALYTIQUE',
                   RESULTAT=EVOL,
                   NOM_CHAM='DEPL',
                   NOM_CMP='DX',
                   VALE_CALC=2.1197556491378E-05,
                   VALE_REFE=2.1217941E-05,
                   CRITERE='RELATIF',
                   PRECISION=1.E-3,),
                ),
          )

    # CONTRAINTES
TEST_RESU(RESU=(_F(NUME_ORDRE=1,
                   GROUP_NO='A',
                   REFERENCE='ANALYTIQUE',
                   RESULTAT=EVOL,
                   NOM_CHAM='SIGM_NOEU',
                   NOM_CMP='SIYY',
                   VALE_CALC=98.62324310315,
                   VALE_REFE=99.9566,
                   CRITERE='RELATIF',
                   PRECISION=0.02,),
                _F(NUME_ORDRE=1,
                   GROUP_NO='A',
                   REFERENCE='ANALYTIQUE',
                   RESULTAT=EVOL,
                   NOM_CHAM='SIGM_NOEU',
                   NOM_CMP='SIXX',
                   VALE_CALC=-60.914207914005,
                   VALE_REFE=-59.9955,
                   CRITERE='RELATIF',
                   PRECISION=0.02,),
                _F(NUME_ORDRE=1,
                   GROUP_NO='A',
                   REFERENCE='ANALYTIQUE',
                   RESULTAT=EVOL,
                   NOM_CHAM='SIGM_NOEU',
                   NOM_CMP='SIZZ',
                   VALE_CALC=19.428975515274,
                   VALE_REFE=19.9326,
                   CRITERE='RELATIF',
                   PRECISION=0.03,),
                _F(NUME_ORDRE=1,
                   GROUP_NO='A',
                   REFERENCE='ANALYTIQUE',
                   RESULTAT=EVOL,
                   NOM_CHAM='SIGM_NOEU',
                   NOM_CMP='SIXY',
                   VALE_CALC=-2.759603216176,
                   VALE_REFE=0.0,
                   CRITERE='ABSOLU',
                   PRECISION=3.0,),
                _F(NUME_ORDRE=1,
                   GROUP_NO='F',
                   REFERENCE='ANALYTIQUE',
                   RESULTAT=EVOL,
                   NOM_CHAM='SIGM_NOEU',
                   NOM_CMP='SIXX',
                   VALE_CALC=19.946852256401,
                   VALE_REFE=20.003,
                   CRITERE='RELATIF',
                   PRECISION=3.E-3,),
                _F(NUME_ORDRE=1,
                   GROUP_NO='F',
                   REFERENCE='ANALYTIQUE',
                   RESULTAT=EVOL,
                   NOM_CHAM='SIGM_NOEU',
                   NOM_CMP='SIYY',
                   VALE_CALC=19.905532099373,
                   VALE_REFE=20.003,
                   CRITERE='RELATIF',
                   PRECISION=5.E-3,),
                _F(NUME_ORDRE=1,
                   GROUP_NO='F',
                   REFERENCE='ANALYTIQUE',
                   RESULTAT=EVOL,
                   NOM_CHAM='SIGM_NOEU',
                   NOM_CMP='SIZZ',
                   VALE_CALC=20.03075773209,
                   VALE_REFE=20.003,
                   CRITERE='RELATIF',
                   PRECISION=2.E-3,),
                _F(NUME_ORDRE=1,
                   GROUP_NO='F',
                   REFERENCE='ANALYTIQUE',
                   RESULTAT=EVOL,
                   NOM_CHAM='SIGM_NOEU',
                   NOM_CMP='SIXY',
                   VALE_CALC=-19.897015086153,
                   VALE_REFE=-20.003,
                   CRITERE='RELATIF',
                   PRECISION=1.E-2,),
                ),
          )

    # CONTRAINTES EQUIVALENTES
TEST_RESU(RESU=(_F(GROUP_NO='A',
                   INST=1.0,
                   REFERENCE='ANALYTIQUE',
                   RESULTAT=EVOL,
                   NOM_CHAM='SIEQ_NOEU',
                   NOM_CMP='VMIS',
                   VALE_CALC=138.26656386354,
                   VALE_REFE=138.52260000000001,
                   CRITERE='RELATIF',
                   PRECISION=2.E-3,
                   MAILLE='M1',),
                _F(GROUP_NO='A',
                   INST=1.0,
                   REFERENCE='ANALYTIQUE',
                   RESULTAT=EVOL,
                   NOM_CHAM='SIEQ_NOEU',
                   NOM_CMP='TRESCA',
                   VALE_CALC=159.65144212962,
                   VALE_REFE=159.9521,
                   CRITERE='RELATIF',
                   PRECISION=2.E-3,
                   MAILLE='M1',),
                _F(GROUP_NO='A',
                   INST=1.0,
                   REFERENCE='ANALYTIQUE',
                   RESULTAT=EVOL,
                   NOM_CHAM='SIEQ_NOEU',
                   NOM_CMP='PRIN_1',
                   VALE_CALC=-60.969943062956,
                   VALE_REFE=-59.9955,
                   CRITERE='RELATIF',
                   PRECISION=2.E-2,
                   MAILLE='M1',),
                _F(GROUP_NO='A',
                   INST=1.0,
                   REFERENCE='ANALYTIQUE',
                   RESULTAT=EVOL,
                   NOM_CHAM='SIEQ_NOEU',
                   NOM_CMP='PRIN_2',
                   VALE_CALC=19.426454700711,
                   VALE_REFE=19.9326,
                   CRITERE='RELATIF',
                   PRECISION=3.E-2,
                   MAILLE='M1',),
                _F(GROUP_NO='A',
                   INST=1.0,
                   REFERENCE='ANALYTIQUE',
                   RESULTAT=EVOL,
                   NOM_CHAM='SIEQ_NOEU',
                   NOM_CMP='PRIN_3',
                   VALE_CALC=98.681499066663,
                   VALE_REFE=99.9566,
                   CRITERE='RELATIF',
                   PRECISION=1.5E-2,
                   MAILLE='M1',),
                _F(GROUP_NO='A',
                   INST=1.0,
                   REFERENCE='ANALYTIQUE',
                   RESULTAT=EVOL,
                   NOM_CHAM='SIEQ_NOEU',
                   NOM_CMP='VMIS_SG',
                   VALE_CALC=138.26656386354,
                   VALE_REFE=138.52260000000001,
                   CRITERE='RELATIF',
                   PRECISION=2.E-3,
                   MAILLE='M1',),
                ),
          )

#--------------------------------------------------------------------------------
#  TEST SUR L'ESTIMATEUR D'ERREUR EN RESIDU

TEST_RESU(RESU=_F(INST=1.0,
                  POINT=1,
                  RESULTAT=EVOL,
                  NOM_CHAM='ERME_ELEM',
                  NOM_CMP='NUEST',
                  VALE_CALC=1.4249235683863,
                  CRITERE='RELATIF',
                  MAILLE='M537',
                  ),
          )

TEST_RESU(RESU=_F(GROUP_NO='A',
                  INST=1.0,
                  RESULTAT=EVOL,
                  NOM_CHAM='ERME_ELNO',
                  NOM_CMP='ERREST',
                  VALE_CALC=4.3238541664061E-04,
                  CRITERE='RELATIF',
                  MAILLE='M537',
                  ),
          )

FIN();

#
