 TITRE
CODE_ASTER - 11.00.27 - VERSION DE DEVELOPPEMENT          - FRONTAL1         - L
 FINSF
 %
 COOR_3D
 N1        0.00000000000000E+00  0.00000000000000E+00  0.00000000000000E+00
 N2        5.00000000000000E+00  0.00000000000000E+00  2.50000000000000E+01
 N3        0.00000000000000E+00  5.00000000000000E+00  2.50000000000000E+01
 N4        0.00000000000000E+00  5.00000000000000E+00  0.00000000000000E+00
 N5        5.00000000000000E+00  5.00000000000000E+00  2.50000000000000E+01
 N6        5.00000000000000E+00  5.00000000000000E+00  0.00000000000000E+00
 N7        5.00000000000000E+00  0.00000000000000E+00  0.00000000000000E+00
 N8        0.00000000000000E+00  0.00000000000000E+00  2.50000000000000E+01
 FINSF
 %
 TETRA4  
 M1       N8       N3       N2       N1      
 M2       N3       N5       N2       N6      
 M3       N2       N3       N6       N1      
 M4       N3       N6       N1       N4      
 M5       N2       N1       N6       N7      
 FINSF
 %
 GROUP_MA
 VOL     
 M1       M2       M3       M4       M5      
 FINSF
 %
 FIN
