# TITRE BARREAU FISSURE AVEC X-FEM
# ======================================================================
# COPYRIGHT (C) 1991 - 2012  EDF R&D                  WWW.CODE-ASTER.ORG
# THIS PROGRAM IS FREE SOFTWARE; YOU CAN REDISTRIBUTE IT AND/OR MODIFY
# IT UNDER THE TERMS OF THE GNU GENERAL PUBLIC LICENSE AS PUBLISHED BY
# THE FREE SOFTWARE FOUNDATION; EITHER VERSION 2 OF THE LICENSE, OR
# (AT YOUR OPTION) ANY LATER VERSION.
#
# THIS PROGRAM IS DISTRIBUTED IN THE HOPE THAT IT WILL BE USEFUL, BUT
# WITHOUT ANY WARRANTY; WITHOUT EVEN THE IMPLIED WARRANTY OF
# MERCHANTABILITY OR FITNESS FOR A PARTICULAR PURPOSE. SEE THE GNU
# GENERAL PUBLIC LICENSE FOR MORE DETAILS.
#
# YOU SHOULD HAVE RECEIVED A COPY OF THE GNU GENERAL PUBLIC LICENSE
# ALONG WITH THIS PROGRAM; IF NOT, WRITE TO EDF R&D CODE_ASTER,
#    1 AVENUE DU GENERAL DE GAULLE, 92141 CLAMART CEDEX, FRANCE.
# ======================================================================

DEBUT(CODE=_F(NOM='SSNV173A', NIV_PUB_WEB='INTERNET'),DEBUG=_F(SDVERI='OUI'))

MAILLAG1=LIRE_MAILLAGE(FORMAT='MED',INFO=1,);

MAILLAG1=DEFI_GROUP(reuse =MAILLAG1,
                    MAILLAGE=MAILLAG1,
                    CREA_GROUP_NO=_F(GROUP_MA='VOL',),);

MODELEIN=AFFE_MODELE(MAILLAGE=MAILLAG1,
                   AFFE=_F(GROUP_MA=('VOL',),
                            PHENOMENE='MECANIQUE',
                            MODELISATION='3D',
                           ),
                   );

LN=FORMULE(NOM_PARA=('X','Y','Z'),VALE='Z-12.5 ');

FISS=DEFI_FISS_XFEM(MODELE=MODELEIN,
                    TYPE_DISCONTINUITE='INTERFACE',
                    DEFI_FISS=_F(FONC_LN=LN,),
                    INFO=3,);

MODELEK=MODI_MODELE_XFEM(MODELE_IN=MODELEIN,
                         FISSURE=FISS,
                         INFO=2,
                         );

E=205000.0E6
nu=0.3
ACIER=DEFI_MATERIAU(ELAS=_F(E=E,
                            NU=nu,
                            RHO=7800.0,),);

CHAMPMAT=AFFE_MATERIAU(MAILLAGE=MAILLAG1,
                       MODELE=MODELEK,
                       AFFE=(_F(GROUP_MA=('VOL',),
                                MATER=ACIER,
                                ),
                             ),);



DEPZ=1E-6
CH=AFFE_CHAR_MECA(MODELE=MODELEK,
                   DDL_IMPO=(_F(NOEUD=('N1','N2','N3','N4'),
                                DX=0.,DY=0.,DZ=0.),
                             _F(NOEUD=('N5','N6','N7','N8'),
                                DX=0.,DY=0.,DZ=DEPZ),),);

UTOT=MECA_STATIQUE(MODELE=MODELEK,
                   CHAM_MATER=CHAMPMAT,
                   EXCIT=(_F(CHARGE=CH),
                          
                          ),
                   INFO=2,
                   ); 
# -------------------------------------------------------------   
#            POST-TRAITEMENT POUR LA VISUALISATION X-FEM   
# -------------------------------------------------------------   

MA_XFEM=POST_MAIL_XFEM(
                       MODELE        = MODELEK,
                       INFO          = 2)

MOD_VISU=AFFE_MODELE(MAILLAGE=MA_XFEM,
                     AFFE=_F(TOUT='OUI',
                              PHENOMENE='MECANIQUE',
                              MODELISATION='3D',),) 

RES_XFEM=POST_CHAM_XFEM(MODELE_VISU   = MOD_VISU,
                        RESULTAT      = UTOT,
                        
                        INFO          = 2)
 
#IMPR_RESU(FORMAT='GMSH',UNITE=81,RESU=_F(RESULTAT=RES_XFEM));


# -------------------------------------------------------------   
#            TEST_TABLE
# -------------------------------------------------------------   


DEP=POST_RELEVE_T(ACTION=_F(INTITULE='DEPLE',
                                GROUP_NO=('NFISSU',),
                                RESULTAT=RES_XFEM,
                                NOM_CHAM='DEPL',
                                NUME_ORDRE=1,
                                TOUT_CMP='OUI',
                                OPERATION='EXTRACTION',),);

IMPR_TABLE(TABLE=DEP,
           FORMAT='AGRAF',
           FORMAT_R='1PE12.5',
           IMPR_FONCTION='NON',);


DEPP = CALC_TABLE(TABLE = DEP,
                  ACTION = (_F(OPERATION = 'FILTRE',
                               NOM_PARA  = 'NOEUD',
                               CRIT_COMP = 'REGEXP',
                               VALE_K    = 'N[^P]',),),);


DEPM = CALC_TABLE(TABLE = DEP,
                  ACTION = (_F(OPERATION = 'FILTRE',
                               NOM_PARA  = 'NOEUD',
                               CRIT_COMP = 'REGEXP',
                               VALE_K    = 'N[^M]',),),);

TEST_TABLE(CRITERE='ABSOLU',
           REFERENCE='ANALYTIQUE',
           PRECISION=9.9999999999999998E-17,
           VALE_CALC=-8.7037359411825994E-22,
           VALE_REFE=0.0,
           TOLE_MACHINE=9.9999999999999998E-17,
           NOM_PARA='DX',
           TYPE_TEST='MIN',
           TABLE=DEPP,)

TEST_TABLE(CRITERE='ABSOLU',
           REFERENCE='ANALYTIQUE',
           PRECISION=9.9999999999999998E-17,
           VALE_CALC=-1.5421579396699568E-22,
           VALE_REFE=0.0,
           TOLE_MACHINE=9.9999999999999998E-17,
           NOM_PARA='DX',
           TYPE_TEST='MAX',
           TABLE=DEPP,)

TEST_TABLE(CRITERE='ABSOLU',
           REFERENCE='ANALYTIQUE',
           PRECISION=9.9999999999999998E-17,
           VALE_CALC= 4.5577651751671825E-22,
           VALE_REFE=0.0,
           TOLE_MACHINE=9.9999999999999998E-17,
           NOM_PARA='DY',
           TYPE_TEST='MIN',
           TABLE=DEPP,)

TEST_TABLE(CRITERE='ABSOLU',
           REFERENCE='ANALYTIQUE',
           PRECISION=9.9999999999999998E-17,
           VALE_CALC= 1.0587911840678754E-21,
           VALE_REFE=0.0,
           TOLE_MACHINE=9.9999999999999998E-17,
           NOM_PARA='DY',
           TYPE_TEST='MAX',
           TABLE=DEPP,)

TEST_TABLE(CRITERE='ABSOLU',
           REFERENCE='ANALYTIQUE',
           PRECISION=9.9999999999999998E-17,
           VALE_CALC=-2.0646428089323571E-21,
           VALE_REFE=0,
           TOLE_MACHINE=9.9999999999999998E-17,
           NOM_PARA='DZ',
           TYPE_TEST='MIN',
           TABLE=DEPP,)

TEST_TABLE(CRITERE='ABSOLU',
           REFERENCE='ANALYTIQUE',
           PRECISION=9.9999999999999998E-17,
           VALE_CALC= 0.0000000000000000E+00,
           VALE_REFE=0,
           TOLE_MACHINE=9.9999999999999998E-17,
           NOM_PARA='DZ',
           TYPE_TEST='MAX',
           TABLE=DEPP,)

TEST_TABLE(CRITERE='ABSOLU',
           REFERENCE='ANALYTIQUE',
           PRECISION=9.9999999999999998E-17,
           VALE_CALC=-4.2869086616400728E-21,
           VALE_REFE=0.0,
           TOLE_MACHINE=9.9999999999999998E-17,
           NOM_PARA='DX',
           TYPE_TEST='MIN',
           TABLE=DEPM,)

TEST_TABLE(CRITERE='ABSOLU',
           REFERENCE='ANALYTIQUE',
           PRECISION=9.9999999999999998E-17,
           VALE_CALC= 9.3068916879111664E-22,
           VALE_REFE=0.0,
           TOLE_MACHINE=9.9999999999999998E-17,
           NOM_PARA='DX',
           TYPE_TEST='MAX',
           TABLE=DEPM,)

TEST_TABLE(CRITERE='ABSOLU',
           REFERENCE='ANALYTIQUE',
           PRECISION=9.9999999999999998E-17,
           VALE_CALC= 9.5989225121833921E-21,
           VALE_REFE=0.0,
           TOLE_MACHINE=9.9999999999999998E-17,
           NOM_PARA='DY',
           TYPE_TEST='MIN',
           TABLE=DEPM,)

TEST_TABLE(CRITERE='ABSOLU',
           REFERENCE='ANALYTIQUE',
           PRECISION=9.9999999999999998E-17,
           VALE_CALC= 1.5044760981114467E-20,
           VALE_REFE=0.0,
           TOLE_MACHINE=9.9999999999999998E-17,
           NOM_PARA='DY',
           TYPE_TEST='MAX',
           TABLE=DEPM,)

TEST_TABLE(CRITERE='RELATIF',
           REFERENCE='ANALYTIQUE',
           PRECISION=9.9999999999999994E-12,
           VALE_CALC= 1.00000000000E-06,
           VALE_REFE=9.9999999999999995E-07,
           TOLE_MACHINE=9.9999999999999994E-12,
           NOM_PARA='DZ',
           TYPE_TEST='MIN',
           TABLE=DEPM,)

TEST_TABLE(CRITERE='RELATIF',
           REFERENCE='ANALYTIQUE',
           PRECISION=9.9999999999999994E-12,
           VALE_CALC= 1.00000000000E-06,
           VALE_REFE=9.9999999999999995E-07,
           TOLE_MACHINE=9.9999999999999994E-12,
           NOM_PARA='DZ',
           TYPE_TEST='MAX',
           TABLE=DEPM,)

# -------------------------------------------------------------   
#            VALIDATION DE DEFI_FISS_XFEM/DEFI_FISS/CHAM_NO_LSN   
# -------------------------------------------------------------   

TBLSN=LIRE_TABLE(UNITE=38,INFO=2,
               FORMAT='ASTER',  
               NUME_TABLE=1, 
               SEPARATEUR=' ',
               TITRE='level set normale',)

CHLSN=CREA_CHAMP(INFO=2,OPERATION='EXTR',TABLE=TBLSN,
                TYPE_CHAM='NOEU_NEUT_R',MAILLAGE=MAILLAG1)

FISS2=DEFI_FISS_XFEM(MODELE=MODELEIN,INFO=2,
                     TYPE_DISCONTINUITE='INTERFACE',
                     DEFI_FISS=_F(CHAM_NO_LSN=CHLSN),);

CHLSN2=CREA_CHAMP(TYPE_CHAM='NOEU_NEUT_R',INFO=2,
              OPERATION='EXTR',
              NOM_CHAM='LNNO',
              FISSURE=FISS2,);


CHLSN0=CREA_CHAMP(TYPE_CHAM='NOEU_NEUT_R',INFO=2,
              OPERATION='EXTR',
              NOM_CHAM='LNNO',
              FISSURE=FISS,);

DEFI_FICHIER(UNITE=81,FICHIER='./fort.81')

IMPR_RESU(UNITE=81,INFO=2,MODELE=MODELEIN,
          RESU=_F(CHAM_GD=CHLSN2),)

IMPR_RESU(UNITE=81,INFO=2,MODELE=MODELEIN,
          RESU=_F(CHAM_GD=CHLSN),)

IMPR_RESU(UNITE=81,INFO=2,MODELE=MODELEIN,
          RESU=_F(CHAM_GD=CHLSN0),)

DEFI_FICHIER(UNITE=81, ACTION='LIBERER')

TEST_FICHIER(FICHIER='./fort.81',INFO=2,
             EXPR_IGNORE = ('ASTER'),
             NB_VALE=51,
             VALE_CALC=111.0,)

FIN();
