# TITRE ETUDE: DRAINED CYCLIC STRESS-CONTROLLED SHEAR TEST WITH HUJEUX MODEL (MECA PUR)
# ======================================================================
# COPYRIGHT (C) 1991 - 2013  EDF R&D                  WWW.CODE-ASTER.ORG
# THIS PROGRAM IS FREE SOFTWARE; YOU CAN REDISTRIBUTE IT AND/OR MODIFY
# IT UNDER THE TERMS OF THE GNU GENERAL PUBLIC LICENSE AS PUBLISHED BY
# THE FREE SOFTWARE FOUNDATION; EITHER VERSION 2 OF THE LICENSE, OR
# (AT YOUR OPTION) ANY LATER VERSION.
#
# THIS PROGRAM IS DISTRIBUTED IN THE HOPE THAT IT WILL BE USEFUL, BUT
# WITHOUT ANY WARRANTY; WITHOUT EVEN THE IMPLIED WARRANTY OF
# MERCHANTABILITY OR FITNESS FOR A PARTICULAR PURPOSE. SEE THE GNU
# GENERAL PUBLIC LICENSE FOR MORE DETAILS.
#
# YOU SHOULD HAVE RECEIVED A COPY OF THE GNU GENERAL PUBLIC LICENSE
# ALONG WITH THIS PROGRAM; IF NOT, WRITE TO EDF R&D CODE_ASTER,
#    1 AVENUE DU GENERAL DE GAULLE, 92141 CLAMART CEDEX, FRANCE.
# ======================================================================
#
# PRESSION DE CONSOLIDATION P0 = 50KPA


DEBUT(CODE=_F(NIV_PUB_WEB='INTERNET',VISU_EFICAS='NON'),DEBUG=_F(SDVERI='OUI'))

# modules mecaniques [kPa]
K=516.2E6
G=238.2E6
# =>
YOUNG = 9.*K*G /(3.*K+G)
POISSON = (3.*K-2.*G) /(6.*K+2.*G)

P0 = - 5.E4

MATE=DEFI_MATERIAU(ELAS=_F(E = YOUNG, NU = POISSON),
                   HUJEUX=_F(N=0.4,
                             BETA=24,
                             B=0.2,
                             D=2.5,
                             PHI=33,
                             ANGDIL=33,
                             PCO=-1.E6,
                             PREF=-1.E6,
                             ACYC=0.0001,
                             AMON=0.008,
                             CCYC=0.09,
                             CMON=0.18,
                             RD_ELA=0.005,
                             RI_ELA=0.001,
                             RHYS=0.05,
                             RMOB=0.9,
                             XM=1,
                             RD_CYC=0.005,
                             RI_CYC=0.001,
                             DILA  =1.,),);

TEMPS1=DEFI_LIST_REEL(DEBUT=0,
                      INTERVALLE=(_F(JUSQU_A=40, NOMBRE=80,),),);


################################################################
#     ESSAI DE CISAILLEMENT CYCLIQUE AVEC MICRO-DECHARGES      #
################################################################
COEF1=DEFI_FONCTION(NOM_PARA='INST',
                    VALE=(0 ,0,
                          10,-1.E4,
                          15,-6.E3,
                          20,-6.3E3,
                          25,1.E4,
                          30,-5.E3,
                          35,-4.7E3,
                          40,-1.E4,),
                    PROL_DROITE='CONSTANT',);

COEF2=DEFI_FONCTION(NOM_PARA='INST',
                    VALE=(0 ,P0,
                          40,P0,),
                    PROL_DROITE='CONSTANT',);

DEFLIST1 =DEFI_LIST_INST(DEFI_LIST=_F(LIST_INST = TEMPS1),
                        ECHEC=_F(ACTION        = 'DECOUPE',
                                 SUBD_METHODE  = 'MANUEL',
                                 SUBD_PAS      = 10,
                                 SUBD_NIVEAU   = 10),)

U1=SIMU_POINT_MAT(COMPORTEMENT=_F(RELATION='HUJEUX',
                               ALGO_INTE='SPECIFIQUE',
                               ITER_INTE_MAXI=20,
                               RESI_INTE_RELA=1E-8,
                               ITER_INTE_PAS =20),
                  MATER=MATE,
                  INCREMENT=_F(LIST_INST=DEFLIST1,
                               NUME_INST_INIT=0,
                               INST_FIN=40,),
                  NEWTON=_F(MATRICE='TANGENTE',
                            REAC_ITER=1,),
#                 RECH_LINEAIRE = _F(ITER_LINE_MAXI = 3),
                  CONVERGENCE=_F(RESI_GLOB_RELA = 1.E-6,
                                 ITER_GLOB_MAXI = 10),
                  ARCHIVAGE=_F(LIST_INST=TEMPS1,),
                  SIGM_IMPOSE=_F(SIXX=COEF2,
                                 SIYY=COEF2,
                                 SIZZ=COEF2,
                                 SIXY=COEF1,),
                  SIGM_INIT=_F(SIXX=P0,
                               SIYY=P0,
                               SIZZ=P0,),
                  EPSI_INIT=_F(EPXX=0,
                               EPYY=0,
                               EPZZ=0,
                               EPXY=0,
                               EPXZ=0,
                               EPYZ=0,),);

IMPR_TABLE(TABLE=U1,);

################################################################
#                TESTS DE VALEURS CARACTERISTIQUES             #
################################################################
# TEST DE DE LA COMPOSANTE XY DES DEFORMATIONS PAR RAPPORT
# AUX REFERENCES CODE_ASTER SANS MICRO-DECHARGES
TEST_TABLE(CRITERE='RELATIF',
           REFERENCE='AUTRE_ASTER',
           PRECISION=1.E-2,
           VALE_CALC=-1.9381363453863E-04,
           VALE_REFE=-1.9492199999999999E-4,
           NOM_PARA='EPXY',
           TABLE=U1,
           FILTRE=_F(CRITERE='ABSOLU',
                     PRECISION=1.0E-08,
                     NOM_PARA='INST',
                     VALE=10.0,),
           )

TEST_TABLE(CRITERE='RELATIF',
           REFERENCE='AUTRE_ASTER',
           PRECISION=1.E-2,
           VALE_CALC= 1.9379130860667E-04,
           VALE_REFE=1.9378900000000001E-4,
           NOM_PARA='EPXY',
           TABLE=U1,
           FILTRE=_F(CRITERE='ABSOLU',
                     PRECISION=1.0E-08,
                     NOM_PARA='INST',
                     VALE=25.0,),
           )

TEST_TABLE(CRITERE='RELATIF',
           REFERENCE='AUTRE_ASTER',
           PRECISION=1.E-2,
           VALE_CALC=-1.9374788178404E-04,
           VALE_REFE=-1.94861E-4,
           NOM_PARA='EPXY',
           TABLE=U1,
           FILTRE=_F(CRITERE='ABSOLU',
                     PRECISION=1.0E-08,
                     NOM_PARA='INST',
                     VALE=40.0,),
           )

# TEST DE LA DEFORMATION VOLUMIQUE PLASTIQUE PAR RAPPORT
# AUX REFERENCES CODE_ASTER
TEST_TABLE(CRITERE='RELATIF',
           REFERENCE='AUTRE_ASTER',
           PRECISION=0.02,
           VALE_CALC=-1.3304703727614E-05,
           VALE_REFE=-1.3461299999999999E-05,
           NOM_PARA='V23',
           TABLE=U1,
           FILTRE=_F(CRITERE='ABSOLU',
                     PRECISION=1.0E-08,
                     NOM_PARA='INST',
                     VALE=10.0,),
           )

TEST_TABLE(CRITERE='RELATIF',
           REFERENCE='AUTRE_ASTER',
           PRECISION=1.E-2,
           VALE_CALC=-4.2455861966412E-05,
           VALE_REFE=-4.278E-05,
           NOM_PARA='V23',
           TABLE=U1,
           FILTRE=_F(CRITERE='ABSOLU',
                     PRECISION=1.0E-08,
                     NOM_PARA='INST',
                     VALE=25.0,),
           )

TEST_TABLE(CRITERE='RELATIF',
           REFERENCE='AUTRE_ASTER',
           PRECISION=1.E-2,
           VALE_CALC=-7.1595831382425E-05,
           VALE_REFE=-7.2087899999999998E-05,
           NOM_PARA='V23',
           TABLE=U1,
           FILTRE=_F(CRITERE='ABSOLU',
                     PRECISION=1.0E-08,
                     NOM_PARA='INST',
                     VALE=40.0,),
           )

# TEST DES RAYONS DEVIATOIRES CYCLIQUES PAR RAPPORT
# AUX REFERENCES CODE_ASTER

TEST_TABLE(CRITERE='RELATIF',
           REFERENCE='AUTRE_ASTER',
           PRECISION=1.E-2,
           VALE_CALC=0.22961270713994,
           VALE_REFE=0.22961300000000001,
           NOM_PARA='V7',
           TABLE=U1,
           FILTRE=_F(CRITERE='ABSOLU',
                     PRECISION=1.0E-08,
                     NOM_PARA='INST',
                     VALE=25.0,),
           )

TEST_TABLE(CRITERE='RELATIF',
           REFERENCE='AUTRE_ASTER',
           PRECISION=1.E-2,
           VALE_CALC=0.22959281606998,
           VALE_REFE=0.22959299999999999,
           NOM_PARA='V7',
           TABLE=U1,
           FILTRE=_F(CRITERE='ABSOLU',
                     PRECISION=1.0E-08,
                     NOM_PARA='INST',
                     VALE=40.0,),
           )

################################################################
#     ESSAI DE CISAILLEMENT CYCLIQUE SANS MICRO-DECHARGES      #
################################################################

#########################################
# TEST QUI SERT DE REFERENC AU PRECEDENT#
#########################################
INCLUDE(UNITE=30);

U3=TEST_INIT(TINI=0.0,
             TMIL=25.0,
             TFIN=40.0,
             LIST_INST=TEMPS1,
             MATER=MATE);

IMPR_TABLE(TABLE=U3,);

TEST_TABLE(CRITERE='RELATIF',
           REFERENCE='AUTRE_ASTER',
           PRECISION=1.E-2,
           VALE_CALC=-7.164823536215E-05,
           VALE_REFE=-7.2087899999999998E-05,
           NOM_PARA='V23',
           TABLE=U3,
           FILTRE=_F(CRITERE='ABSOLU',
                     PRECISION=9.0E-05,
                     NOM_PARA='INST',
                     VALE=40.0,),
           )

TEST_TABLE(CRITERE='RELATIF',
           REFERENCE='AUTRE_ASTER',
           PRECISION=1.E-2,
           VALE_CALC=0.22959308079122,
           VALE_REFE=0.22959299999999999,
           NOM_PARA='V7',
           TABLE=U3,
           FILTRE=_F(CRITERE='ABSOLU',
                     PRECISION=9.0E-05,
                     NOM_PARA='INST',
                     VALE=40.0,),
           )

FIN();
