# DATE     : 03/08/2001
# AUTEUR   : F. LEBOUVIER (DELTACAD)
# TITRE    : PATIN GLISSANT SUR UN PLAN RIGIDE
# ======================================================================
# COPYRIGHT (C) 1991 - 2012  EDF R&D                  WWW.CODE-ASTER.ORG
# THIS PROGRAM IS FREE SOFTWARE; YOU CAN REDISTRIBUTE IT AND/OR MODIFY
# IT UNDER THE TERMS OF THE GNU GENERAL PUBLIC LICENSE AS PUBLISHED BY
# THE FREE SOFTWARE FOUNDATION; EITHER VERSION 2 OF THE LICENSE, OR
# (AT YOUR OPTION) ANY LATER VERSION.
#
# THIS PROGRAM IS DISTRIBUTED IN THE HOPE THAT IT WILL BE USEFUL, BUT
# WITHOUT ANY WARRANTY; WITHOUT EVEN THE IMPLIED WARRANTY OF
# MERCHANTABILITY OR FITNESS FOR A PARTICULAR PURPOSE. SEE THE GNU
# GENERAL PUBLIC LICENSE FOR MORE DETAILS.
#
# YOU SHOULD HAVE RECEIVED A COPY OF THE GNU GENERAL PUBLIC LICENSE
# ALONG WITH THIS PROGRAM; IF NOT, WRITE TO EDF R&D CODE_ASTER,
#    1 AVENUE DU GENERAL DE GAULLE, 92141 CLAMART CEDEX, FRANCE.
# ======================================================================
# CAS TEST SSNV503C
# - MODELISATION AVEC DES ELEMENTS D_PLAN (MAILLES QUA4)
# - MODELISATION DU CONTACT AVEC LA METHODE CONTACT (AFFE_CHAR_MECA)
# - METHODE LAGRANGIENNE POUR LE CONTACT ET PENALISEE POUR LE FROTTEMENT

DEBUT(CODE=_F(NOM='SSNV503C',NIV_PUB_WEB='INTERNET',),DEBUG=_F(SDVERI='OUI'))

MAILL=LIRE_MAILLAGE(FORMAT='MED',VERI_MAIL=_F(VERIF='OUI',),);

MAILL=DEFI_GROUP(reuse =MAILL,
                 MAILLAGE=MAILL,
                 CREA_GROUP_NO=_F(TOUT_GROUP_MA='OUI',),);

MODE=AFFE_MODELE(MAILLAGE=MAILL,
                 VERIF='MAILLE',
                 AFFE=(_F(TOUT='OUI',
                          PHENOMENE='MECANIQUE',
                          MODELISATION='D_PLAN',),
                       _F(GROUP_MA='RES_LAT',
                          PHENOMENE='MECANIQUE',
                          MODELISATION='2D_DIS_T',),
                       _F(GROUP_MA='RES_HAUT',
                          PHENOMENE='MECANIQUE',
                          MODELISATION='2D_DIS_T',),),);

MAILL=MODI_MAILLAGE(reuse =MAILL,
                    MAILLAGE=MAILL,
                    ORIE_PEAU_2D=_F(GROUP_MA=('LMAI','LESC','FACESUP','FACELAT'),),
                    );

#---------------------------------------------------------------------
#                         CARACTERISTIQUES ELEMENTAIRES
#---------------------------------------------------------------------

CARA=AFFE_CARA_ELEM(MODELE=MODE,
                    DISCRET_2D=(_F(GROUP_MA='RES_LAT',
                                   REPERE='LOCAL',
                                   CARA='K_T_D_L',
                                   VALE=(2.0,0.0),),
                                _F(GROUP_MA='RES_HAUT',
                                   REPERE='LOCAL',
                                   CARA='K_T_D_L',
                                   VALE=(0.005,0.0),),
                              ),);

IMPR_CO ( CONCEPT= _F(NOM=CARA )) ;

#---------------------------------------------------------------------
#                         CARACTERISTIQUES MATERIAUX
#---------------------------------------------------------------------

MPATIN=DEFI_MATERIAU(ELAS=_F(E=2.10000E5,
                             NU=0.0,),);

MBATI=DEFI_MATERIAU(ELAS=_F(E=1.E5,
                            NU=0.0,),);

CM=AFFE_MATERIAU(MAILLAGE=MAILL,
                 MODELE=MODE,
                 AFFE=(_F(GROUP_MA='PATIN',
                          MATER=MPATIN,),
                       _F(GROUP_MA='BATI',
                          MATER=MBATI,),
                       ),);

#---------------------------------------------------------------------
#                         CHARGEMENTS
#---------------------------------------------------------------------

# CONDITIONS AUX LIMITES
COND_LIM=AFFE_CHAR_MECA(MODELE=MODE,
                        DDL_IMPO=(_F(GROUP_NO='BATI',
                                     DX=0.0,DY=0.0,),
                                  _F(GROUP_NO=('R1','R2','X','Y'),
                                     DX=0.0,DY=0.0,),),);

# CHARGEMENT 1 : APPLICATION DE LA PRESSION NORMALE
PNOR=AFFE_CHAR_MECA(MODELE=MODE,
                    PRES_REP=_F(GROUP_MA='FACESUP',
                                PRES=300.0,),);

# CHARGEMENT 2 : APPLICATION DE LA PRESSION NORMALE ET DE LA PRESSION
#                  TANGENTIELLE (PT=0.3*PN*0.99)
PTAN_99=AFFE_CHAR_MECA(MODELE=MODE,
                       PRES_REP=_F(GROUP_MA='FACELAT',
                                   PRES=178.19999999999999,),);

# CHARGEMENT 3 : APPLICATION DE LA PRESSION NORMALE ET DE LA PRESSION
#                  TANGENTIELLE (PT=0.3*PN*1.01)
PTAN_101=AFFE_CHAR_MECA(MODELE=MODE,
                        PRES_REP=_F(GROUP_MA='FACELAT',
                                    PRES=181.80000000000001,),);

# DEFINITION DU CONTACT
CTAC =DEFI_CONTACT(MODELE       = MODE,
                   FORMULATION  = 'DISCRETE',
                   FROTTEMENT   = 'COULOMB',
                   REAC_GEOM    = 'CONTROLE',
                   NB_ITER_GEOM = 2,
                   ZONE=(
                        _F(
                          ALGO_CONT  = 'LAGRANGIEN',
                          ALGO_FROT  = 'PENALISATION',
                          COULOMB    = 0.3,
                          COEF_MATR_FROT=0.9,
                          E_T=1.E+6,
                          GROUP_MA_MAIT='LMAI',
                          GROUP_MA_ESCL='LESC',
                         ),
                       ),
                  )


#---------------------------------------------------------------------
#                         RESOLUTION
#---------------------------------------------------------------------

RAMPE=DEFI_FONCTION(NOM_PARA='INST',
                    VALE=(0.0,0.0,
                          1.0,1.0),
                    PROL_DROITE='LINEAIRE',
                    PROL_GAUCHE='LINEAIRE',);

L_INST=DEFI_LIST_REEL(DEBUT=0.0,
                      INTERVALLE=_F(JUSQU_A=1.0,
                                    NOMBRE=2,),);

# CHARGEMENT 1
U_NOR=STAT_NON_LINE(MODELE=MODE,
                    CHAM_MATER=CM,
                    CARA_ELEM=CARA,
                    EXCIT=(_F(CHARGE=PNOR,
                              FONC_MULT=RAMPE,),
                           _F(CHARGE=COND_LIM,),),
                    CONTACT  = CTAC,
                    COMPORTEMENT=_F(RELATION='ELAS',
                                 TOUT='OUI',),
                    INCREMENT=_F(LIST_INST=L_INST,),
                    NEWTON=_F(MATRICE='TANGENTE',
                              REAC_ITER=1,),
                    SOLVEUR=_F(SYME='OUI',
                               METHODE='LDLT',),
                    CONVERGENCE=_F(ITER_GLOB_MAXI=30,),
                    INFO=1,);

U_NOR=CALC_CHAMP(reuse =U_NOR,
              RESULTAT=U_NOR,
              FORCE='REAC_NODA',
             );
# CHARGEMENT 2
U_99=STAT_NON_LINE(MODELE=MODE,
                   CHAM_MATER=CM,
                   CARA_ELEM=CARA,
                   EXCIT=(_F(CHARGE=PNOR,
                             FONC_MULT=RAMPE,),
                          _F(CHARGE=PTAN_99,
                             FONC_MULT=RAMPE,),
                          _F(CHARGE=COND_LIM,),),
                   CONTACT  =CTAC,
                   COMPORTEMENT=_F(RELATION='ELAS',
                                TOUT='OUI',),
                   INCREMENT=_F(LIST_INST=L_INST,),
                   NEWTON=_F(MATRICE='TANGENTE',
                             REAC_ITER=1,),
                   SOLVEUR=_F(SYME='OUI',
                              METHODE='LDLT',),
                   CONVERGENCE=_F(ITER_GLOB_MAXI=1500,),);

U_99=CALC_CHAMP(reuse =U_99,
             RESULTAT=U_99,
             FORCE='REAC_NODA',
             );
# CHARGEMENT 3
U_101=STAT_NON_LINE(MODELE=MODE,
                    CHAM_MATER=CM,
                    CARA_ELEM=CARA,
                    EXCIT=(_F(CHARGE=PNOR,
                              FONC_MULT=RAMPE,),
                           _F(CHARGE=PTAN_101,
                              FONC_MULT=RAMPE,),
                           _F(CHARGE=COND_LIM,),),
                    CONTACT  =CTAC,
                    COMPORTEMENT=_F(RELATION='ELAS',
                                 TOUT='OUI',),
                    INCREMENT=_F(LIST_INST=L_INST,),
                    NEWTON=_F(MATRICE='TANGENTE',
                              REAC_ITER=1,),
                    SOLVEUR=_F(SYME='OUI',
                               METHODE='LDLT',),
                    CONVERGENCE=_F(ITER_GLOB_MAXI=1500,),
                    );

U_101=CALC_CHAMP(reuse =U_101,
              RESULTAT=U_101,
              FORCE='REAC_NODA',
            );
#---------------------------------------------------------------------
#                         VERIFICATION DES RESULTATS
#---------------------------------------------------------------------
# CHARGEMENT 1
TEST_RESU(RESU=(_F(GROUP_NO='A',
                   INST=1.0,
                   RESULTAT=U_NOR,
                   NOM_CHAM='DEPL',
                   NOM_CMP='DX',
                   VALE_CALC=0.999999999,
                   ),
                _F(GROUP_NO='A',
                   INST=1.0,
                   RESULTAT=U_NOR,
                   NOM_CHAM='DEPL',
                   NOM_CMP='DY',
                   VALE_CALC=-1.732050809,
                   ),
                _F(GROUP_NO='B',
                   INST=1.0,
                   RESULTAT=U_NOR,
                   NOM_CHAM='DEPL',
                   NOM_CMP='DX',
                   VALE_CALC=1.000000001,
                   ),
                _F(GROUP_NO='B',
                   INST=1.0,
                   RESULTAT=U_NOR,
                   NOM_CHAM='DEPL',
                   NOM_CMP='DY',
                   VALE_CALC=-1.732050807,
                   ),
                ),
          )

TU_NOR=POST_RELEVE_T(ACTION=_F(INTITULE='FORCE',
                               GROUP_NO='LESC',
                               RESULTAT=U_NOR,
                               NOM_CHAM='REAC_NODA',
                               NOM_CMP=('DX','DY'),
                               REPERE='LOCAL',
                               OPERATION='EXTRACTION',
                               INST=1.,),);

TEST_TABLE(REFERENCE='ANALYTIQUE',
           PRECISION=0.05,
           VALE_CALC= 1.19999797E+04,
           VALE_REFE=1.2000E4,
           NOM_PARA='DY',
           TYPE_TEST='SOMM',
           TABLE=TU_NOR,)

TEST_TABLE(CRITERE='ABSOLU',
           REFERENCE='ANALYTIQUE',
           PRECISION=0.05,
           TOLE_MACHINE=5.E-5,
           VALE_CALC=-1.6614087485323E-05,
           VALE_REFE=0.0,
           NOM_PARA='DX',
           TYPE_TEST='SOMM',
           TABLE=TU_NOR,)

# CHARGEMENT 2
TEST_RESU(RESU=(_F(GROUP_NO='A',
                   INST=1.0,
                   RESULTAT=U_99,
                   NOM_CHAM='DEPL',
                   NOM_CMP='DX',
                   VALE_CALC=1.021850092,
                   ),
                _F(GROUP_NO='A',
                   INST=1.0,
                   RESULTAT=U_99,
                   NOM_CHAM='DEPL',
                   NOM_CMP='DY',
                   VALE_CALC=-1.719435651,
                   ),
                _F(GROUP_NO='B',
                   INST=1.0,
                   RESULTAT=U_99,
                   NOM_CHAM='DEPL',
                   NOM_CMP='DX',
                   VALE_CALC=1.000505709,
                   ),
                _F(GROUP_NO='B',
                   INST=1.0,
                   RESULTAT=U_99,
                   NOM_CHAM='DEPL',
                   NOM_CMP='DY',
                   VALE_CALC=-1.731758836,
                   ),
                ),
          )

TU_99=POST_RELEVE_T(ACTION=_F(INTITULE='FORCE',
                              GROUP_NO='LESC',
                              RESULTAT=U_99,
                              NOM_CHAM='REAC_NODA',
                              NOM_CMP=('DX','DY'),
                              REPERE='LOCAL',
                              OPERATION='EXTRACTION',
                              INST=1.),);

TEST_TABLE(REFERENCE='ANALYTIQUE',
           PRECISION=0.05,
           VALE_CALC= 1.19999798E+04,
           VALE_REFE=1.2000E4,
           NOM_PARA='DY',
           TYPE_TEST='SOMM',
           TABLE=TU_99,)

TEST_TABLE(REFERENCE='ANALYTIQUE',
           PRECISION=0.05,
           VALE_CALC=-3.56395934E+03,
           VALE_REFE=-3564.0,
           NOM_PARA='DX',
           TYPE_TEST='SOMM',
           TABLE=TU_99,)

# CHARGEMENT 3
TEST_RESU(RESU=(_F(GROUP_NO='A',
                   INST=1.0,
                   RESULTAT=U_101,
                   NOM_CHAM='DEPL',
                   NOM_CMP='DX',
                   VALE_CALC=8.809533451,
                   ),
                _F(GROUP_NO='A',
                   INST=1.0,
                   RESULTAT=U_101,
                   NOM_CHAM='DEPL',
                   NOM_CMP='DY',
                   VALE_CALC=2.776785431,
                   ),
                _F(GROUP_NO='B',
                   INST=1.0,
                   RESULTAT=U_101,
                   NOM_CHAM='DEPL',
                   NOM_CMP='DX',
                   VALE_CALC=8.786943823,
                   ),
                _F(GROUP_NO='B',
                   INST=1.0,
                   RESULTAT=U_101,
                   NOM_CHAM='DEPL',
                   NOM_CMP='DY',
                   VALE_CALC=2.763743304,
                   ),
                ),
          )

TU_101=POST_RELEVE_T(ACTION=_F(INTITULE='FORCE',
                               GROUP_NO='LESC',
                               RESULTAT=U_101,
                               NOM_CHAM='REAC_NODA',
                               NOM_CMP=('DX','DY'),
                               REPERE='LOCAL',
                               OPERATION='EXTRACTION',
                               INST=1.),);

TEST_TABLE(REFERENCE='ANALYTIQUE',
           PRECISION=0.05,
           VALE_CALC= 1.19999799E+04,
           VALE_REFE=1.2000E4,
           NOM_PARA='DY',
           TYPE_TEST='SOMM',
           TABLE=TU_101,)

TEST_TABLE(REFERENCE='ANALYTIQUE',
           PRECISION=0.05,
           VALE_CALC=-3.59999392E+03,
           VALE_REFE=-3624.0,
           NOM_PARA='DX',
           TYPE_TEST='SOMM',
           TABLE=TU_101,)

FIN();
