# MODIF  DATE 17/07/2007   AUTEUR PELLET J.PELLET 
# TITRE : VALIDATION DES CONDITIONS DE NEUMANN AVEC X-FEM EN 2D
#            CONFIGURATION MANAGEMENT OF EDF VERSION
# ======================================================================
# COPYRIGHT (C) 1991 - 2007  EDF R&D                  WWW.CODE-ASTER.ORG
# THIS PROGRAM IS FREE SOFTWARE; YOU CAN REDISTRIBUTE IT AND/OR MODIFY
# IT UNDER THE TERMS OF THE GNU GENERAL PUBLIC LICENSE AS PUBLISHED BY
# THE FREE SOFTWARE FOUNDATION; EITHER VERSION 2 OF THE LICENSE, OR
# (AT YOUR OPTION) ANY LATER VERSION.
#
# THIS PROGRAM IS DISTRIBUTED IN THE HOPE THAT IT WILL BE USEFUL, BUT
# WITHOUT ANY WARRANTY; WITHOUT EVEN THE IMPLIED WARRANTY OF
# MERCHANTABILITY OR FITNESS FOR A PARTICULAR PURPOSE. SEE THE GNU
# GENERAL PUBLIC LICENSE FOR MORE DETAILS.
#
# YOU SHOULD HAVE RECEIVED A COPY OF THE GNU GENERAL PUBLIC LICENSE
# ALONG WITH THIS PROGRAM; IF NOT, WRITE TO EDF R&D CODE_ASTER,
#    1 AVENUE DU GENERAL DE GAULLE, 92141 CLAMART CEDEX, FRANCE.
# ======================================================================

DEBUT(CODE=_F(NOM='SSNV191C', NIV_PUB_WEB='INTERNET'), DEBUG=_F(SDVERI='OUI'))
# CETTE MODELISATION TESTE L'APPLICATION D'UNE PRESSION (CONSTANTE ET FONCTION)
# ET D UNE FORCE (CONSTANTE ET FONCTION)
#----------------------------------------------
#                   MAILLAGE
#----------------------------------------------
# precision
n = 1000.0;

# dimensions de la structure
lx = 2.0;

ly = 3.0;


PRE_GIBI();

MAILLAG1=LIRE_MAILLAGE(INFO=1,);

MAILLAG1=DEFI_GROUP(reuse =MAILLAG1,
                    MAILLAGE=MAILLAG1,
                    CREA_GROUP_NO=(_F(NOEUD='N12',
                                      NOM='A',),
                                   _F(NOEUD='N6',
                                      NOM='B',),),
                    INFO=2,);

MAILLAG2=CREA_MAILLAGE(MAILLAGE=MAILLAG1,
                       LINE_QUAD=_F(GROUP_MA=('MTOT','LPRESG','LPRESD',),),);

IMPR_RESU(FORMAT='RESULTAT',
          RESU=_F(MAILLAGE=MAILLAG2,),);
#----------------------------------------------
#                   MODELE ET FISSURE
#----------------------------------------------

MO=AFFE_MODELE(MAILLAGE=MAILLAG2,
               AFFE=_F(GROUP_MA=('MTOT','LPRESG','LPRESD',),
                       PHENOMENE='MECANIQUE',
                       MODELISATION='C_PLAN_XFEM',),);

MAILLAG2=MODI_MAILLAGE(reuse =MAILLAG2,
                       MAILLAGE=MAILLAG2,
                       ORIE_PEAU_2D=_F(GROUP_MA=('LPRESD','LPRESG',),),);

LN = FORMULE(VALE='Y-1.5',
             NOM_PARA=('X','Y',),);

LT = FORMULE(VALE='X-100.',
             NOM_PARA=('X','Y',),);

FISS=DEFI_FISS_XFEM(MODELE=MO,
                    DEFI_FISS=_F(FONC_LT=LT,
                                 FONC_LN=LN,),
                    GROUP_MA_ENRI='MTOT',
                    INFO=3,);

MODELEK=MODI_MODELE_XFEM(MODELE_IN=MO,
                         FISSURE=FISS,
                         INFO=1,);

CHXFEM=AFFE_CHAR_MECA(MODELE=MODELEK,
                      LIAISON_XFEM='OUI',
                      INFO=1,);
#----------------------------------------------
#                   MATERIAU
#----------------------------------------------
E = 10000000000.0;

nu = 0.0;

rho = 7800.0;


ACIER=DEFI_MATERIAU(ELAS=_F(E=E,
                            NU=nu,
                            RHO=rho,),);

CHAMPMAT=AFFE_MATERIAU(MAILLAGE=MAILLAG2,
                       MODELE=MO,
                       AFFE=_F(GROUP_MA='MTOT',
                               MATER=ACIER,
                               TEMP_REF=0.0,),);
#----------------------------------------------
#                   CHARGEMENTS
#----------------------------------------------

CH=AFFE_CHAR_MECA(MODELE=MODELEK,
                  DDL_IMPO=(_F(GROUP_NO='P1',
                               DY=0.0,),
                            _F(GROUP_NO='P2',
                               DY=0.0,),
                            _F(GROUP_NO='A',
                               DX=0.0,
                               DY=0.0,),
                            _F(GROUP_NO='B',
                               DX=0.0,
                               DY=0.0,),),
                  INFO=1,);

# pour tester option CHAR_MECA_PRES_R
CH1=AFFE_CHAR_MECA(MODELE=MODELEK,
                   PRES_REP=(_F(GROUP_MA='LPRESG',
                                PRES=10000.,
                                CISA_2D=0.,
                                ),
                             _F(GROUP_MA='LPRESD',
                                PRES=10000.,
                                CISA_2D=0.,
                                ),),);

def pr(y) :
   if y<1.5  :  return -10000.
   if y>1.5  :  return  10000.
   if y==1.5  :  return  0.
FCTPRES = FORMULE(VALE='pr(Y)',
                  NOM_PARA=('X','Y',),);

# pour tester option CHAR_MECA_PRES_F
FCTCIS = FORMULE(VALE='0.',
                  NOM_PARA=('X','Y',),);

CH2=AFFE_CHAR_MECA_F(MODELE=MODELEK,
                     PRES_REP=_F(GROUP_MA=('LPRESD','LPRESG',),
                                 PRES=FCTPRES,
                                 CISA_2D=FCTCIS),);

# pour tester option CHAR_MECA_FR1D2D
CH3=AFFE_CHAR_MECA(MODELE=MODELEK,
                   FORCE_CONTOUR=(_F(GROUP_MA='LPRESG',FX=10000.,),
                               _F(GROUP_MA='LPRESD',FX=-10000.,),
                             ),);

# pour tester option CHAR_MECA_FF1D2D
def prinv(y) :
   if y<1.5  :  return 10000.
   if y>1.5  :  return -10000.
   if y==1.5  :  return  0.
FCTPRES2=FORMULE(NOM_PARA=('X','Y'),VALE='prinv(Y)');
CH4=AFFE_CHAR_MECA_F(MODELE=MODELEK,
                     FORCE_CONTOUR=(_F(GROUP_MA='LPRESG',FX=FCTPRES,),
                               _F(GROUP_MA='LPRESD',FX=FCTPRES2,),
                              ),);
#----------------------------------------------
#                   RESOLUTION
#----------------------------------------------

L_INS=DEFI_LIST_REEL(DEBUT=0.0,
                     INTERVALLE=_F(JUSQU_A=3.0,
                                   NOMBRE=3,),);

UTOT1=STAT_NON_LINE(MODELE=MODELEK,
                    CHAM_MATER=CHAMPMAT,
                    EXCIT=(_F(CHARGE=CHXFEM,),
                           _F(CHARGE=CH,),
                           _F(CHARGE=CH1,),),
                    COMP_ELAS=_F(RELATION='ELAS',
                                 GROUP_MA='MTOT',),
                    INCREMENT=_F(LIST_INST=L_INS,
                                 INST_FIN=1.0,),
                    NEWTON=_F(REAC_ITER=1,),
                    CONVERGENCE=_F(RESI_GLOB_RELA=1E-6,
                                   ARRET='OUI',),
                    INFO=1,);

UTOT2=STAT_NON_LINE(MODELE=MODELEK,
                    CHAM_MATER=CHAMPMAT,
                    EXCIT=(_F(CHARGE=CHXFEM,),
                           _F(CHARGE=CH,),
                           _F(CHARGE=CH2,),),
                    COMP_ELAS=_F(RELATION='ELAS',
                                 GROUP_MA='MTOT',),
                    INCREMENT=_F(LIST_INST=L_INS,
                                 INST_FIN=1.0,),
                    NEWTON=_F(REAC_ITER=1,),
                    CONVERGENCE=_F(RESI_GLOB_RELA=1E-6,
                                   ARRET='OUI',),
                    INFO=1,);

UTOT3=STAT_NON_LINE(MODELE=MODELEK,
                   CHAM_MATER=CHAMPMAT,
                   EXCIT=(_F(CHARGE=CHXFEM,),
                          _F(CHARGE=CH,),
                          _F(CHARGE=CH3,),),
                   COMP_ELAS=_F(RELATION='ELAS',
                                GROUP_MA='MTOT',),
                   INCREMENT=_F(LIST_INST=L_INS,
                                INST_FIN=1.0,),
                   NEWTON=_F(REAC_ITER=1,),
                   INFO=1,);

UTOT4=STAT_NON_LINE(MODELE=MODELEK,
                   CHAM_MATER=CHAMPMAT,
                   EXCIT=(_F(CHARGE=CHXFEM,),
                          _F(CHARGE=CH,),
                          _F(CHARGE=CH4,),),
                   COMP_ELAS=_F(RELATION='ELAS',
                                GROUP_MA='MTOT',),
                   INCREMENT=_F(LIST_INST=L_INS,
                                INST_FIN=1.0,),
                   NEWTON=_F(REAC_ITER=1,),
                    INFO=1,);
#----------------------------------------------
#                  TESTS
#----------------------------------------------
#PREMIER CHARGEMENT

DEP1=POST_RELEVE_T(ACTION=_F(OPERATION='EXTRACTION',
                             INTITULE='DEPLE',
                             RESULTAT=UTOT1,
                             NOM_CHAM='DEPL',
                             NUME_ORDRE=1,
                             NOEUD=('N1','N2','N3','N4','N5','N11','N18','N13','N14','N15','N16','N17',),
                             TOUT_CMP='OUI',),);

IMPR_TABLE(TABLE=DEP1,);

TEST_TABLE(TABLE=DEP1,
           FILTRE=_F(NOM_PARA='NOEUD',
                     VALE_K='N1',),
           NOM_PARA='DX',
           VALE=-1e-06,
           CRITERE='RELATIF',
           PRECISION=1e-11,
           REFERENCE='ANALYTIQUE',);

TEST_TABLE(TABLE=DEP1,
           FILTRE=_F(NOM_PARA='NOEUD',
                     VALE_K='N2',),
           NOM_PARA='DX',
           VALE=-1e-06,
           CRITERE='RELATIF',
           PRECISION=1e-11,
           REFERENCE='ANALYTIQUE',);

TEST_TABLE(TABLE=DEP1,
           FILTRE=_F(NOM_PARA='NOEUD',
                     VALE_K='N5',),
           NOM_PARA='DX',
           VALE=-1e-06,
           CRITERE='RELATIF',
           PRECISION=1e-11,
           REFERENCE='ANALYTIQUE',);

TEST_TABLE(TABLE=DEP1,
           FILTRE=_F(NOM_PARA='NOEUD',
                     VALE_K='N11',),
           NOM_PARA='DX',
           VALE=-1e-06,
           CRITERE='RELATIF',
           PRECISION=1e-11,
           REFERENCE='ANALYTIQUE',);

TEST_TABLE(TABLE=DEP1,
           FILTRE=_F(NOM_PARA='NOEUD',
                     VALE_K='N2',),
           NOM_PARA='DCX',
           VALE=-1e-06,
           CRITERE='RELATIF',
           PRECISION=1e-11,
           REFERENCE='ANALYTIQUE',);

TEST_TABLE(TABLE=DEP1,
           FILTRE=_F(NOM_PARA='NOEUD',
                     VALE_K='N5',),
           NOM_PARA='DCX',
           VALE=-1e-06,
           CRITERE='RELATIF',
           PRECISION=1e-11,
           REFERENCE='ANALYTIQUE',);

TEST_TABLE(TABLE=DEP1,
           FILTRE=_F(NOM_PARA='NOEUD',
                     VALE_K='N2',),
           NOM_PARA='H1X',
           VALE=0.0,
           CRITERE='ABSOLU',
           PRECISION=1e-11,
           REFERENCE='ANALYTIQUE',);

TEST_TABLE(TABLE=DEP1,
           FILTRE=_F(NOM_PARA='NOEUD',
                     VALE_K='N5',),
           NOM_PARA='H1X',
           VALE=0.0,
           CRITERE='ABSOLU',
           PRECISION=1e-11,
           REFERENCE='ANALYTIQUE',);

TEST_TABLE(TABLE=DEP1,
           FILTRE=_F(NOM_PARA='NOEUD',
                     VALE_K='N3',),
           NOM_PARA='DCX',
           VALE=-1e-06,
           CRITERE='RELATIF',
           PRECISION=1e-11,
           REFERENCE='ANALYTIQUE',);

TEST_TABLE(TABLE=DEP1,
           FILTRE=_F(NOM_PARA='NOEUD',
                     VALE_K='N3',),
           NOM_PARA='H1X',
           VALE=0.0,
           CRITERE='ABSOLU',
           PRECISION=1e-11,
           REFERENCE='ANALYTIQUE',);

TEST_TABLE(TABLE=DEP1,
           FILTRE=_F(NOM_PARA='NOEUD',
                     VALE_K='N4',),
           NOM_PARA='DCX',
           VALE=-1e-06,
           CRITERE='RELATIF',
           PRECISION=1e-11,
           REFERENCE='ANALYTIQUE',);

TEST_TABLE(TABLE=DEP1,
           FILTRE=_F(NOM_PARA='NOEUD',
                     VALE_K='N4',),
           NOM_PARA='H1X',
           VALE=0.0,
           CRITERE='ABSOLU',
           PRECISION=1e-11,
           REFERENCE='ANALYTIQUE',);

TEST_TABLE(TABLE=DEP1,
           FILTRE=_F(NOM_PARA='NOEUD',
                     VALE_K='N18',),
           NOM_PARA='DX',
           VALE=1e-06,
           CRITERE='RELATIF',
           PRECISION=1e-11,
           REFERENCE='ANALYTIQUE',);

TEST_TABLE(TABLE=DEP1,
           FILTRE=_F(NOM_PARA='NOEUD',
                     VALE_K='N13',),
           NOM_PARA='DX',
           VALE=1e-06,
           CRITERE='RELATIF',
           PRECISION=1e-11,
           REFERENCE='ANALYTIQUE',);

TEST_TABLE(TABLE=DEP1,
           FILTRE=_F(NOM_PARA='NOEUD',
                     VALE_K='N16',),
           NOM_PARA='DX',
           VALE=1e-06,
           CRITERE='RELATIF',
           PRECISION=1e-11,
           REFERENCE='ANALYTIQUE',);

TEST_TABLE(TABLE=DEP1,
           FILTRE=_F(NOM_PARA='NOEUD',
                     VALE_K='N17',),
           NOM_PARA='DX',
           VALE=1e-06,
           CRITERE='RELATIF',
           PRECISION=1e-11,
           REFERENCE='ANALYTIQUE',);

TEST_TABLE(TABLE=DEP1,
           FILTRE=_F(NOM_PARA='NOEUD',
                     VALE_K='N13',),
           NOM_PARA='DCX',
           VALE=1e-06,
           CRITERE='RELATIF',
           PRECISION=1e-11,
           REFERENCE='ANALYTIQUE',);

TEST_TABLE(TABLE=DEP1,
           FILTRE=_F(NOM_PARA='NOEUD',
                     VALE_K='N16',),
           NOM_PARA='DCX',
           VALE=1e-06,
           CRITERE='RELATIF',
           PRECISION=1e-11,
           REFERENCE='ANALYTIQUE',);

TEST_TABLE(TABLE=DEP1,
           FILTRE=_F(NOM_PARA='NOEUD',
                     VALE_K='N13',),
           NOM_PARA='H1X',
           VALE=0.0,
           CRITERE='ABSOLU',
           PRECISION=1e-11,
           REFERENCE='ANALYTIQUE',);

TEST_TABLE(TABLE=DEP1,
           FILTRE=_F(NOM_PARA='NOEUD',
                     VALE_K='N16',),
           NOM_PARA='H1X',
           VALE=0.0,
           CRITERE='ABSOLU',
           PRECISION=1e-11,
           REFERENCE='ANALYTIQUE',);

TEST_TABLE(TABLE=DEP1,
           FILTRE=_F(NOM_PARA='NOEUD',
                     VALE_K='N14',),
           NOM_PARA='DCX',
           VALE=1e-06,
           CRITERE='RELATIF',
           PRECISION=1e-11,
           REFERENCE='ANALYTIQUE',);

TEST_TABLE(TABLE=DEP1,
           FILTRE=_F(NOM_PARA='NOEUD',
                     VALE_K='N14',),
           NOM_PARA='H1X',
           VALE=0.0,
           CRITERE='ABSOLU',
           PRECISION=1e-11,
           REFERENCE='ANALYTIQUE',);

TEST_TABLE(TABLE=DEP1,
           FILTRE=_F(NOM_PARA='NOEUD',
                     VALE_K='N15',),
           NOM_PARA='DCX',
           VALE=1e-06,
           CRITERE='RELATIF',
           PRECISION=1e-11,
           REFERENCE='ANALYTIQUE',);

TEST_TABLE(TABLE=DEP1,
           FILTRE=_F(NOM_PARA='NOEUD',
                     VALE_K='N15',),
           NOM_PARA='H1X',
           VALE=0.0,
           CRITERE='ABSOLU',
           PRECISION=1e-11,
           REFERENCE='ANALYTIQUE',);

#DEUXIEME CHARGEMENT

DEP2=POST_RELEVE_T(ACTION=_F(INTITULE='DEPLE',
                                NOEUD=('N1','N2','N3','N4','N5','N11','N18','N13','N14','N15','N16','N17',),
                                RESULTAT=UTOT2,
                                NOM_CHAM='DEPL',
                                NUME_ORDRE=1,
                                TOUT_CMP='OUI',
                                OPERATION='EXTRACTION',),);

IMPR_TABLE(TABLE=DEP2,);



TEST_TABLE(TABLE=DEP2,
           NOM_PARA='DX',
           FILTRE=_F(NOM_PARA='NOEUD',VALE_K='N1',),
           VALE=1.e-6,
           CRITERE='RELATIF',
           PRECISION=1.0E-11,
           REFERENCE='ANALYTIQUE',);

TEST_TABLE(TABLE=DEP2,
           NOM_PARA='DX',
           FILTRE=_F(NOM_PARA='NOEUD',VALE_K='N2',),
           VALE=1.E-6,
           CRITERE='RELATIF',
           PRECISION=1.0E-11,
           REFERENCE='ANALYTIQUE',);

TEST_TABLE(TABLE=DEP2,
           NOM_PARA='DX',
           FILTRE=_F(NOM_PARA='NOEUD',VALE_K='N5',),
           VALE=-1.e-6,
           CRITERE='RELATIF',
           PRECISION=1.0E-11,
           REFERENCE='ANALYTIQUE',);

TEST_TABLE(TABLE=DEP2,
           NOM_PARA='DX',
           FILTRE=_F(NOM_PARA='NOEUD',VALE_K='N11',),
           VALE=-1.E-6,
           CRITERE='RELATIF',
           PRECISION=1.0E-11,
           REFERENCE='ANALYTIQUE',);




TEST_TABLE(TABLE=DEP2,
           NOM_PARA='DCX',
           FILTRE=_F(NOM_PARA='NOEUD',VALE_K='N2',),
           VALE=1.E-6,
           CRITERE='RELATIF',
           PRECISION=1.0E-11,
           REFERENCE='ANALYTIQUE',);

TEST_TABLE(TABLE=DEP2,
           NOM_PARA='DCX',
           FILTRE=_F(NOM_PARA='NOEUD',VALE_K='N5',),
           VALE=-1.e-6,
           CRITERE='RELATIF',
           PRECISION=1.0E-11,
           REFERENCE='ANALYTIQUE',);

TEST_TABLE(TABLE=DEP2,
           NOM_PARA='H1X',
           FILTRE=_F(NOM_PARA='NOEUD',VALE_K='N2',),
           VALE=0.,
           CRITERE='ABSOLU',
           PRECISION=1.0E-11,
           REFERENCE='ANALYTIQUE',);

TEST_TABLE(TABLE=DEP2,
           NOM_PARA='H1X',
           FILTRE=_F(NOM_PARA='NOEUD',VALE_K='N5',),
           VALE=0.,
           CRITERE='ABSOLU',
           PRECISION=1.0E-11,
           REFERENCE='ANALYTIQUE',);






TEST_TABLE(TABLE=DEP2,
           NOM_PARA='DCX',
           FILTRE=_F(NOM_PARA='NOEUD',VALE_K='N3',),
           VALE=0.,
           CRITERE='ABSOLU',
           PRECISION=1.0E-11,
           REFERENCE='ANALYTIQUE',);

TEST_TABLE(TABLE=DEP2,
           NOM_PARA='H1X',
           FILTRE=_F(NOM_PARA='NOEUD',VALE_K='N3',),
           VALE=-1.E-6,
           CRITERE='RELATIF',
           PRECISION=1.0E-11,
           REFERENCE='ANALYTIQUE',);


TEST_TABLE(TABLE=DEP2,
           NOM_PARA='DCX',
           FILTRE=_F(NOM_PARA='NOEUD',VALE_K='N4',),
           VALE=0.,
           CRITERE='ABSOLU',
           PRECISION=1.0E-11,
           REFERENCE='ANALYTIQUE',);

TEST_TABLE(TABLE=DEP2,
           NOM_PARA='H1X',
           FILTRE=_F(NOM_PARA='NOEUD',VALE_K='N4',),
           VALE=-1.E-6,
           CRITERE='RELATIF',
           PRECISION=1.0E-11,
           REFERENCE='ANALYTIQUE',);





TEST_TABLE(TABLE=DEP2,
           NOM_PARA='DX',
           FILTRE=_F(NOM_PARA='NOEUD',VALE_K='N18',),
           VALE=-1.e-6,
           CRITERE='RELATIF',
           PRECISION=1.0E-11,
           REFERENCE='ANALYTIQUE',);

TEST_TABLE(TABLE=DEP2,
           NOM_PARA='DX',
           FILTRE=_F(NOM_PARA='NOEUD',VALE_K='N13',),
           VALE=-1.E-6,
           CRITERE='RELATIF',
           PRECISION=1.0E-11,
           REFERENCE='ANALYTIQUE',);

TEST_TABLE(TABLE=DEP2,
           NOM_PARA='DX',
           FILTRE=_F(NOM_PARA='NOEUD',VALE_K='N16',),
           VALE=1.e-6,
           CRITERE='RELATIF',
           PRECISION=1.0E-11,
           REFERENCE='ANALYTIQUE',);

TEST_TABLE(TABLE=DEP2,
           NOM_PARA='DX',
           FILTRE=_F(NOM_PARA='NOEUD',VALE_K='N17',),
           VALE=1.E-6,
           CRITERE='RELATIF',
           PRECISION=1.0E-11,
           REFERENCE='ANALYTIQUE',);




TEST_TABLE(TABLE=DEP2,
           NOM_PARA='DCX',
           FILTRE=_F(NOM_PARA='NOEUD',VALE_K='N13',),
           VALE=-1.E-6,
           CRITERE='RELATIF',
           PRECISION=1.0E-11,
           REFERENCE='ANALYTIQUE',);

TEST_TABLE(TABLE=DEP2,
           NOM_PARA='DCX',
           FILTRE=_F(NOM_PARA='NOEUD',VALE_K='N16',),
           VALE=1.e-6,
           CRITERE='RELATIF',
           PRECISION=1.0E-11,
           REFERENCE='ANALYTIQUE',);

TEST_TABLE(TABLE=DEP2,
           NOM_PARA='H1X',
           FILTRE=_F(NOM_PARA='NOEUD',VALE_K='N13',),
           VALE=0.,
           CRITERE='ABSOLU',
           PRECISION=1.0E-11,
           REFERENCE='ANALYTIQUE',);

TEST_TABLE(TABLE=DEP2,
           NOM_PARA='H1X',
           FILTRE=_F(NOM_PARA='NOEUD',VALE_K='N16',),
           VALE=0.,
           CRITERE='ABSOLU',
           PRECISION=1.0E-11,
           REFERENCE='ANALYTIQUE',);



TEST_TABLE(TABLE=DEP2,
           NOM_PARA='DCX',
           FILTRE=_F(NOM_PARA='NOEUD',VALE_K='N14',),
           VALE=0.,
           CRITERE='ABSOLU',
           PRECISION=1.0E-11,
           REFERENCE='ANALYTIQUE',);

TEST_TABLE(TABLE=DEP2,
           NOM_PARA='H1X',
           FILTRE=_F(NOM_PARA='NOEUD',VALE_K='N14',),
           VALE=1.e-6,
           CRITERE='RELATIF',
           PRECISION=1.0E-11,
           REFERENCE='ANALYTIQUE',);


TEST_TABLE(TABLE=DEP2,
           NOM_PARA='DCX',
           FILTRE=_F(NOM_PARA='NOEUD',VALE_K='N15',),
           VALE=0.,
           CRITERE='ABSOLU',
           PRECISION=1.0E-11,
           REFERENCE='ANALYTIQUE',);

TEST_TABLE(TABLE=DEP2,
           NOM_PARA='H1X',
           FILTRE=_F(NOM_PARA='NOEUD',VALE_K='N15',),
           VALE=1.e-6,
           CRITERE='RELATIF',
           PRECISION=1.0E-11,
           REFERENCE='ANALYTIQUE',);

#TROISIEME CHARGEMENT

DEP3=POST_RELEVE_T(ACTION=_F(INTITULE='DEPLE',
                                NOEUD=('N1','N2','N3','N4','N5','N11','N18','N13','N14','N15','N16','N17',),
                                RESULTAT=UTOT3,
                                NOM_CHAM='DEPL',
                                NUME_ORDRE=1,
                                TOUT_CMP='OUI',
                                OPERATION='EXTRACTION',),);

IMPR_TABLE(TABLE=DEP3,);



TEST_TABLE(TABLE=DEP3,
           NOM_PARA='DX',
           FILTRE=_F(NOM_PARA='NOEUD',VALE_K='N1',),
           VALE=-1.e-6,
           CRITERE='RELATIF',
           PRECISION=1.0E-11,
           REFERENCE='ANALYTIQUE',);

TEST_TABLE(TABLE=DEP3,
           NOM_PARA='DX',
           FILTRE=_F(NOM_PARA='NOEUD',VALE_K='N2',),
           VALE=-1.E-6,
           CRITERE='RELATIF',
           PRECISION=1.0E-11,
           REFERENCE='ANALYTIQUE',);

TEST_TABLE(TABLE=DEP3,
           NOM_PARA='DX',
           FILTRE=_F(NOM_PARA='NOEUD',VALE_K='N5',),
           VALE=-1.e-6,
           CRITERE='RELATIF',
           PRECISION=1.0E-11,
           REFERENCE='ANALYTIQUE',);

TEST_TABLE(TABLE=DEP3,
           NOM_PARA='DX',
           FILTRE=_F(NOM_PARA='NOEUD',VALE_K='N11',),
           VALE=-1.E-6,
           CRITERE='RELATIF',
           PRECISION=1.0E-11,
           REFERENCE='ANALYTIQUE',);


TEST_TABLE(TABLE=DEP3,
           NOM_PARA='DCX',
           FILTRE=_F(NOM_PARA='NOEUD',VALE_K='N2',),
           VALE=-1.E-6,
           CRITERE='RELATIF',
           PRECISION=1.0E-11,
           REFERENCE='ANALYTIQUE',);

TEST_TABLE(TABLE=DEP3,
           NOM_PARA='DCX',
           FILTRE=_F(NOM_PARA='NOEUD',VALE_K='N5',),
           VALE=-1.e-6,
           CRITERE='RELATIF',
           PRECISION=1.0E-11,
           REFERENCE='ANALYTIQUE',);

TEST_TABLE(TABLE=DEP3,
           NOM_PARA='H1X',
           FILTRE=_F(NOM_PARA='NOEUD',VALE_K='N2',),
           VALE=0.,
           CRITERE='ABSOLU',
           PRECISION=1.0E-11,
           REFERENCE='ANALYTIQUE',);

TEST_TABLE(TABLE=DEP3,
           NOM_PARA='H1X',
           FILTRE=_F(NOM_PARA='NOEUD',VALE_K='N5',),
           VALE=0.,
           CRITERE='ABSOLU',
           PRECISION=1.0E-11,
           REFERENCE='ANALYTIQUE',);




TEST_TABLE(TABLE=DEP3,
           NOM_PARA='DCX',
           FILTRE=_F(NOM_PARA='NOEUD',VALE_K='N3',),
           VALE=-1.E-6,
           CRITERE='RELATIF',
           PRECISION=1.0E-11,
           REFERENCE='ANALYTIQUE',);

TEST_TABLE(TABLE=DEP3,
           NOM_PARA='H1X',
           FILTRE=_F(NOM_PARA='NOEUD',VALE_K='N3',),
           VALE=0.,
           CRITERE='ABSOLU',
           PRECISION=1.0E-11,
           REFERENCE='ANALYTIQUE',);


TEST_TABLE(TABLE=DEP3,
           NOM_PARA='DCX',
           FILTRE=_F(NOM_PARA='NOEUD',VALE_K='N4',),
           VALE=-1.E-6,
           CRITERE='RELATIF',
           PRECISION=1.0E-11,
           REFERENCE='ANALYTIQUE',);

TEST_TABLE(TABLE=DEP3,
           NOM_PARA='H1X',
           FILTRE=_F(NOM_PARA='NOEUD',VALE_K='N4',),
           VALE=0.,
           CRITERE='ABSOLU',
           PRECISION=1.0E-11,
           REFERENCE='ANALYTIQUE',);





TEST_TABLE(TABLE=DEP3,
           NOM_PARA='DX',
           FILTRE=_F(NOM_PARA='NOEUD',VALE_K='N18',),
           VALE=1.e-6,
           CRITERE='RELATIF',
           PRECISION=1.0E-11,
           REFERENCE='ANALYTIQUE',);

TEST_TABLE(TABLE=DEP3,
           NOM_PARA='DX',
           FILTRE=_F(NOM_PARA='NOEUD',VALE_K='N13',),
           VALE=1.E-6,
           CRITERE='RELATIF',
           PRECISION=1.0E-11,
           REFERENCE='ANALYTIQUE',);

TEST_TABLE(TABLE=DEP3,
           NOM_PARA='DX',
           FILTRE=_F(NOM_PARA='NOEUD',VALE_K='N16',),
           VALE=1.e-6,
           CRITERE='RELATIF',
           PRECISION=1.0E-11,
           REFERENCE='ANALYTIQUE',);

TEST_TABLE(TABLE=DEP3,
           NOM_PARA='DX',
           FILTRE=_F(NOM_PARA='NOEUD',VALE_K='N17',),
           VALE=1.E-6,
           CRITERE='RELATIF',
           PRECISION=1.0E-11,
           REFERENCE='ANALYTIQUE',);


TEST_TABLE(TABLE=DEP3,
           NOM_PARA='DCX',
           FILTRE=_F(NOM_PARA='NOEUD',VALE_K='N13',),
           VALE=1.E-6,
           CRITERE='RELATIF',
           PRECISION=1.0E-11,
           REFERENCE='ANALYTIQUE',);

TEST_TABLE(TABLE=DEP3,
           NOM_PARA='DCX',
           FILTRE=_F(NOM_PARA='NOEUD',VALE_K='N16',),
           VALE=1.e-6,
           CRITERE='RELATIF',
           PRECISION=1.0E-11,
           REFERENCE='ANALYTIQUE',);

TEST_TABLE(TABLE=DEP3,
           NOM_PARA='H1X',
           FILTRE=_F(NOM_PARA='NOEUD',VALE_K='N13',),
           VALE=0.,
           CRITERE='ABSOLU',
           PRECISION=1.0E-11,
           REFERENCE='ANALYTIQUE',);

TEST_TABLE(TABLE=DEP3,
           NOM_PARA='H1X',
           FILTRE=_F(NOM_PARA='NOEUD',VALE_K='N16',),
           VALE=0.,
           CRITERE='ABSOLU',
           PRECISION=1.0E-11,
           REFERENCE='ANALYTIQUE',);



TEST_TABLE(TABLE=DEP3,
           NOM_PARA='DCX',
           FILTRE=_F(NOM_PARA='NOEUD',VALE_K='N14',),
           VALE=1.E-6,
           CRITERE='RELATIF',
           PRECISION=1.0E-11,
           REFERENCE='ANALYTIQUE',);

TEST_TABLE(TABLE=DEP3,
           NOM_PARA='H1X',
           FILTRE=_F(NOM_PARA='NOEUD',VALE_K='N14',),
           VALE=0.,
           CRITERE='ABSOLU',
           PRECISION=1.0E-11,
           REFERENCE='ANALYTIQUE',);


TEST_TABLE(TABLE=DEP3,
           NOM_PARA='DCX',
           FILTRE=_F(NOM_PARA='NOEUD',VALE_K='N15',),
           VALE=1.E-6,
           CRITERE='RELATIF',
           PRECISION=1.0E-11,
           REFERENCE='ANALYTIQUE',);

TEST_TABLE(TABLE=DEP3,
           NOM_PARA='H1X',
           FILTRE=_F(NOM_PARA='NOEUD',VALE_K='N15',),
           VALE=0.,
           CRITERE='ABSOLU',
           PRECISION=1.0E-11,
           REFERENCE='ANALYTIQUE',);

#QUATRIEME CHARGEMENT

DEP4=POST_RELEVE_T(ACTION=_F(INTITULE='DEPLE',
                                NOEUD=('N1','N2','N3','N4','N5','N11','N18','N13','N14','N15','N16','N17',),
                                RESULTAT=UTOT4,
                                NOM_CHAM='DEPL',
                                NUME_ORDRE=1,
                                TOUT_CMP='OUI',
                                OPERATION='EXTRACTION',),);

IMPR_TABLE(TABLE=DEP4,);



TEST_TABLE(TABLE=DEP4,
           NOM_PARA='DX',
           FILTRE=_F(NOM_PARA='NOEUD',VALE_K='N1',),
           VALE=1.e-6,
           CRITERE='RELATIF',
           PRECISION=1.0E-11,
           REFERENCE='ANALYTIQUE',);

TEST_TABLE(TABLE=DEP4,
           NOM_PARA='DX',
           FILTRE=_F(NOM_PARA='NOEUD',VALE_K='N2',),
           VALE=1.E-6,
           CRITERE='RELATIF',
           PRECISION=1.0E-11,
           REFERENCE='ANALYTIQUE',);

TEST_TABLE(TABLE=DEP4,
           NOM_PARA='DX',
           FILTRE=_F(NOM_PARA='NOEUD',VALE_K='N5',),
           VALE=-1.e-6,
           CRITERE='RELATIF',
           PRECISION=1.0E-11,
           REFERENCE='ANALYTIQUE',);

TEST_TABLE(TABLE=DEP4,
           NOM_PARA='DX',
           FILTRE=_F(NOM_PARA='NOEUD',VALE_K='N11',),
           VALE=-1.E-6,
           CRITERE='RELATIF',
           PRECISION=1.0E-11,
           REFERENCE='ANALYTIQUE',);




TEST_TABLE(TABLE=DEP4,
           NOM_PARA='DCX',
           FILTRE=_F(NOM_PARA='NOEUD',VALE_K='N2',),
           VALE=1.E-6,
           CRITERE='RELATIF',
           PRECISION=1.0E-11,
           REFERENCE='ANALYTIQUE',);

TEST_TABLE(TABLE=DEP4,
           NOM_PARA='DCX',
           FILTRE=_F(NOM_PARA='NOEUD',VALE_K='N5',),
           VALE=-1.e-6,
           CRITERE='RELATIF',
           PRECISION=1.0E-11,
           REFERENCE='ANALYTIQUE',);

TEST_TABLE(TABLE=DEP4,
           NOM_PARA='H1X',
           FILTRE=_F(NOM_PARA='NOEUD',VALE_K='N2',),
           VALE=0.,
           CRITERE='ABSOLU',
           PRECISION=1.0E-11,
           REFERENCE='ANALYTIQUE',);

TEST_TABLE(TABLE=DEP4,
           NOM_PARA='H1X',
           FILTRE=_F(NOM_PARA='NOEUD',VALE_K='N5',),
           VALE=0.,
           CRITERE='ABSOLU',
           PRECISION=1.0E-11,
           REFERENCE='ANALYTIQUE',);






TEST_TABLE(TABLE=DEP4,
           NOM_PARA='DCX',
           FILTRE=_F(NOM_PARA='NOEUD',VALE_K='N3',),
           VALE=0.,
           CRITERE='ABSOLU',
           PRECISION=1.0E-11,
           REFERENCE='ANALYTIQUE',);

TEST_TABLE(TABLE=DEP4,
           NOM_PARA='H1X',
           FILTRE=_F(NOM_PARA='NOEUD',VALE_K='N3',),
           VALE=-1.E-6,
           CRITERE='RELATIF',
           PRECISION=1.0E-11,
           REFERENCE='ANALYTIQUE',);


TEST_TABLE(TABLE=DEP4,
           NOM_PARA='DCX',
           FILTRE=_F(NOM_PARA='NOEUD',VALE_K='N4',),
           VALE=0.,
           CRITERE='ABSOLU',
           PRECISION=1.0E-11,
           REFERENCE='ANALYTIQUE',);

TEST_TABLE(TABLE=DEP4,
           NOM_PARA='H1X',
           FILTRE=_F(NOM_PARA='NOEUD',VALE_K='N4',),
           VALE=-1.E-6,
           CRITERE='RELATIF',
           PRECISION=1.0E-11,
           REFERENCE='ANALYTIQUE',);





TEST_TABLE(TABLE=DEP4,
           NOM_PARA='DX',
           FILTRE=_F(NOM_PARA='NOEUD',VALE_K='N18',),
           VALE=-1.e-6,
           CRITERE='RELATIF',
           PRECISION=1.0E-11,
           REFERENCE='ANALYTIQUE',);

TEST_TABLE(TABLE=DEP4,
           NOM_PARA='DX',
           FILTRE=_F(NOM_PARA='NOEUD',VALE_K='N13',),
           VALE=-1.E-6,
           CRITERE='RELATIF',
           PRECISION=1.0E-11,
           REFERENCE='ANALYTIQUE',);

TEST_TABLE(TABLE=DEP4,
           NOM_PARA='DX',
           FILTRE=_F(NOM_PARA='NOEUD',VALE_K='N16',),
           VALE=1.e-6,
           CRITERE='RELATIF',
           PRECISION=1.0E-11,
           REFERENCE='ANALYTIQUE',);

TEST_TABLE(TABLE=DEP4,
           NOM_PARA='DX',
           FILTRE=_F(NOM_PARA='NOEUD',VALE_K='N17',),
           VALE=1.E-6,
           CRITERE='RELATIF',
           PRECISION=1.0E-11,
           REFERENCE='ANALYTIQUE',);




TEST_TABLE(TABLE=DEP4,
           NOM_PARA='DCX',
           FILTRE=_F(NOM_PARA='NOEUD',VALE_K='N13',),
           VALE=-1.E-6,
           CRITERE='RELATIF',
           PRECISION=1.0E-11,
           REFERENCE='ANALYTIQUE',);

TEST_TABLE(TABLE=DEP4,
           NOM_PARA='DCX',
           FILTRE=_F(NOM_PARA='NOEUD',VALE_K='N16',),
           VALE=1.e-6,
           CRITERE='RELATIF',
           PRECISION=1.0E-11,
           REFERENCE='ANALYTIQUE',);

TEST_TABLE(TABLE=DEP4,
           NOM_PARA='H1X',
           FILTRE=_F(NOM_PARA='NOEUD',VALE_K='N13',),
           VALE=0.,
           CRITERE='ABSOLU',
           PRECISION=1.0E-11,
           REFERENCE='ANALYTIQUE',);

TEST_TABLE(TABLE=DEP4,
           NOM_PARA='H1X',
           FILTRE=_F(NOM_PARA='NOEUD',VALE_K='N16',),
           VALE=0.,
           CRITERE='ABSOLU',
           PRECISION=1.0E-11,
           REFERENCE='ANALYTIQUE',);



TEST_TABLE(TABLE=DEP4,
           NOM_PARA='DCX',
           FILTRE=_F(NOM_PARA='NOEUD',VALE_K='N14',),
           VALE=0.,
           CRITERE='ABSOLU',
           PRECISION=1.0E-11,
           REFERENCE='ANALYTIQUE',);

TEST_TABLE(TABLE=DEP4,
           NOM_PARA='H1X',
           FILTRE=_F(NOM_PARA='NOEUD',VALE_K='N14',),
           VALE=1.e-6,
           CRITERE='RELATIF',
           PRECISION=1.0E-11,
           REFERENCE='ANALYTIQUE',);


TEST_TABLE(TABLE=DEP4,
           NOM_PARA='DCX',
           FILTRE=_F(NOM_PARA='NOEUD',VALE_K='N15',),
           VALE=0.,
           CRITERE='ABSOLU',
           PRECISION=1.0E-11,
           REFERENCE='ANALYTIQUE',);

TEST_TABLE(TABLE=DEP4,
           NOM_PARA='H1X',
           FILTRE=_F(NOM_PARA='NOEUD',VALE_K='N15',),
           VALE=1.e-6,
           CRITERE='RELATIF',
           PRECISION=1.0E-11,
           REFERENCE='ANALYTIQUE',);
#----------------------------------------------
#             IMPRESSION
#----------------------------------------------

FIN();

