# MODIF  DATE 20/10/2011   AUTEUR SELLENET N.SELLENET 
# TITRE CONTACT AVEC FROTTEMENT D UNE PLAQUE SUR UN PLAN RIGIDE
# ssnv128p.para = tps_job 280 mem_job 500Mo ncpus 1 liste_test S
#            CONFIGURATION MANAGEMENT OF EDF VERSION
# ======================================================================
# COPYRIGHT (C) 1991 - 2011  EDF R&D                  WWW.CODE-ASTER.ORG
# THIS PROGRAM IS FREE SOFTWARE; YOU CAN REDISTRIBUTE IT AND/OR MODIFY
# IT UNDER THE TERMS OF THE GNU GENERAL PUBLIC LICENSE AS PUBLISHED BY
# THE FREE SOFTWARE FOUNDATION; EITHER VERSION 2 OF THE LICENSE, OR
# (AT YOUR OPTION) ANY LATER VERSION.
#
# THIS PROGRAM IS DISTRIBUTED IN THE HOPE THAT IT WILL BE USEFUL, BUT
# WITHOUT ANY WARRANTY; WITHOUT EVEN THE IMPLIED WARRANTY OF
# MERCHANTABILITY OR FITNESS FOR A PARTICULAR PURPOSE. SEE THE GNU
# GENERAL PUBLIC LICENSE FOR MORE DETAILS.
#
# YOU SHOULD HAVE RECEIVED A COPY OF THE GNU GENERAL PUBLIC LICENSE
# ALONG WITH THIS PROGRAM; IF NOT, WRITE TO EDF R&D CODE_ASTER,
#    1 AVENUE DU GENERAL DE GAULLE, 92141 CLAMART CEDEX, FRANCE.
# ======================================================================
#       CAS_TEST SSNV128: 2D, ELEMENTS Q8, METHODE CONTINUE

DEBUT(CODE=_F(NOM = 'SSNV128P',NIV_PUB_WEB='INTERNET'),
      IGNORE_ALARM=('CALCULEL2_63'))

# <CALCULEL2_63> : DANS UN MODELE, IL EXISTE DES ELEMENTS DE TYPE "BORD" QUI N'ONT PAS DE VOISIN AVEC RIGIDITE
#  LE MODELE PROVOQUANT CES ALARMES CONTIENT UNE SURFACE RIGIDE POUR LE CONTACT

#......................................................
#  CALCUL TEST ELEMENTS FINIS DE CONTACT 2D QUAD8
#  PLAQUE AVEC CONTACT ET FROTTEMENT SUR UN PLAN RIGIDE
#......................................................

MA=LIRE_MAILLAGE(FORMAT='MED',VERI_MAIL=_F(VERIF='OUI'));

MA=DEFI_GROUP(reuse =MA,
              MAILLAGE=MA,
              CREA_GROUP_NO=(_F(GROUP_MA='LCONTA',
                                OPTION='NOEUD_ORDO',
                                NOM='RELEVE',
                                GROUP_NO_ORIG='PPA',
                                GROUP_NO_EXTR='PPS')));

MO=AFFE_MODELE(MAILLAGE=MA,
               AFFE=_F(TOUT = 'OUI',
                       PHENOMENE = 'MECANIQUE',
                       MODELISATION = 'D_PLAN'));

MA=MODI_MAILLAGE(reuse=MA,
                 MAILLAGE=MA,
                 ORIE_PEAU_2D=(_F(GROUP_MA = 'LPRESV'),
                               _F(GROUP_MA = 'LPRESH')));

MATPLA=DEFI_MATERIAU(ELAS=_F(E = 1.3E11,
                             NU = 0.2));

CHMAT=AFFE_MATERIAU(MAILLAGE=MA,
                    AFFE=_F(TOUT = 'OUI',
                             MATER = MATPLA));

CHA1=AFFE_CHAR_MECA(MODELE=MO,
                    DDL_IMPO=(_F(GROUP_MA = 'LBATI',  DX = 0.0, DY = 0.0),
                              _F(GROUP_NO = 'PPS',    DX = 0.0, DY = 0.0),
                              _F(GROUP_MA = 'LBLOCX', DX = 0.0)),
                    PRES_REP=(_F(GROUP_MA = 'LPRESV', PRES = 5.E07),
                              _F(GROUP_MA = 'LPRESH', PRES = 15.E07)));

CHA2=DEFI_CONTACT(MODELE=MO,
                  FORMULATION='CONTINUE',
                  FROTTEMENT='COULOMB',
                  ITER_GEOM_MAXI=20,
                  RESI_GEOM=0.05,
                  RESI_FROT=1e-10,
                  ALGO_RESO_CONT = 'NEWTON',
                  ZONE=_F(SANS_GROUP_NO='PPS',
                          GROUP_MA_MAIT='LBATI',
                          GROUP_MA_ESCL='LCONTA',
                          CONTACT_INIT='INTERPENETRE',
                          COULOMB=1,
                          SEUIL_INIT=1e-1,
                          ALGO_FROT ='STANDARD',
                          COEF_CONT =1.e2,
                          COEF_FROT =1.e6,
                           ),
                              );

RAMPE=DEFI_FONCTION(NOM_PARA='INST',
                    PROL_GAUCHE='LINEAIRE',
                    PROL_DROITE='LINEAIRE',
                    VALE=(0.0,0.0,1.0,1.0));

LINST=DEFI_LIST_REEL(DEBUT=0.,
                      INTERVALLE=_F(JUSQU_A = 1.0, NOMBRE = 5));

L_INST=DEFI_LIST_INST(DEFI_LIST=_F(METHODE='MANUEL',
                                  LIST_INST=LINST,),
                     ECHEC=_F(EVENEMENT='ERREUR',
                              ACTION='DECOUPE',
                              SUBD_METHODE = 'MANUEL',
                              SUBD_PAS=5,
                              SUBD_NIVEAU=5,),);

#-----------------------------------------------------------

U2M=STAT_NON_LINE(MODELE     = MO,
                  CHAM_MATER = CHMAT,
                  EXCIT=_F(CHARGE=CHA1,
                           FONC_MULT=RAMPE,),
                  CONTACT=CHA2,
                  COMP_ELAS  = _F(RELATION = 'ELAS'),
                  INCREMENT  = _F(LIST_INST = L_INST),
                  NEWTON=_F(REAC_ITER=1,),
                  CONVERGENCE= _F(ARRET = 'OUI',
                                 ITER_GLOB_MAXI = 50,
                                 RESI_GLOB_RELA = 1.0E-4),
#                  INFO=2,
               );
#
DEPLAC=POST_RELEVE_T(ACTION=_F(INTITULE='DEPLAC',
                              GROUP_NO='RELEVE',
                              RESULTAT=U2M,
                              NOM_CHAM='DEPL',
                              INST=0.4,
                              TOUT_CMP='OUI',
                              OPERATION='EXTRACTION'));
#
TCONT=POST_RELEVE_T(ACTION=_F(INTITULE='CONT',
                              GROUP_NO='RELEVE',
                              RESULTAT=U2M,
                              NOM_CHAM='VALE_CONT',
                              INST=0.4,
                              TOUT_CMP='OUI',
                              OPERATION='EXTRACTION'));

IMPR_TABLE(TABLE=DEPLAC);
IMPR_TABLE(TABLE=TCONT);

TEST_RESU(RESU=(_F(RESULTAT   = U2M,
                   INST       = 1.0,
                   NOM_CHAM   = 'DEPL',
                   GROUP_NO   = 'PPA',
                   NOM_CMP    = 'DX',
                   VALE       = 2.86E-5,
                   PRECISION  = 5.E-2,
                   REFERENCE  = 'AUTRE_ASTER',
                   VERSION    = '7.1.11'),
                _F(RESULTAT   = U2M,
                   INST       = 1.0,
                   NOM_CHAM   = 'DEPL',
                   GROUP_NO   = 'PPB',
                   NOM_CMP    = 'DX',
                   VALE       = 2.72E-5,
                   PRECISION  = 5.E-2,
                   REFERENCE  = 'AUTRE_ASTER',
                   VERSION    = '7.1.11'),
                _F(RESULTAT   = U2M,
                   INST       = 1.0,
                   NOM_CHAM   = 'DEPL',
                   GROUP_NO   = 'PPC',
                   NOM_CMP    = 'DX',
                   VALE       = 2.28E-5,
                   PRECISION  = 5.E-2,
                   REFERENCE  = 'AUTRE_ASTER',
                   VERSION    = '7.1.11'),
                _F(RESULTAT   = U2M,
                   INST       = 1.0,
                   NOM_CHAM   = 'DEPL',
                   GROUP_NO   = 'PPD',
                   NOM_CMP    = 'DX',
                   VALE       = 1.98E-5,
                   PRECISION  = 5.E-2,
                   REFERENCE  = 'AUTRE_ASTER',
                   VERSION    = '7.1.11'),
                _F(RESULTAT   = U2M,
                   INST       = 1.0,
                   NOM_CHAM   = 'DEPL',
                   GROUP_NO   = 'PPE',
                   NOM_CMP    = 'DX',
                   VALE       = 1.50E-5,
                   PRECISION  = 5.E-2,
                   REFERENCE  = 'AUTRE_ASTER',
                   VERSION    = '7.1.11')));

FIN();
#
