
# TITRE EXTRUSION D'UN LOPIN
# ======================================================================
# COPYRIGHT (C) 1991 - 2012  EDF R&D                  WWW.CODE-ASTER.ORG
# THIS PROGRAM IS FREE SOFTWARE; YOU CAN REDISTRIBUTE IT AND/OR MODIFY
# IT UNDER THE TERMS OF THE GNU GENERAL PUBLIC LICENSE AS PUBLISHED BY
# THE FREE SOFTWARE FOUNDATION; EITHER VERSION 2 OF THE LICENSE, OR
# (AT YOUR OPTION) ANY LATER VERSION.
#
# THIS PROGRAM IS DISTRIBUTED IN THE HOPE THAT IT WILL BE USEFUL, BUT
# WITHOUT ANY WARRANTY; WITHOUT EVEN THE IMPLIED WARRANTY OF
# MERCHANTABILITY OR FITNESS FOR A PARTICULAR PURPOSE. SEE THE GNU
# GENERAL PUBLIC LICENSE FOR MORE DETAILS.
#
# YOU SHOULD HAVE RECEIVED A COPY OF THE GNU GENERAL PUBLIC LICENSE
# ALONG WITH THIS PROGRAM; IF NOT, WRITE TO EDF R&D CODE_ASTER,
#    1 AVENUE DU GENERAL DE GAULLE, 92141 CLAMART CEDEX, FRANCE.
# ======================================================================
# CAS_TEST : SSNV504B
# MODELE
# MAILLAGE : MODELISATION : 3D
#             SOLIDE : HEXA8 PENTA6
#             CONTACT : QUAD4 ET TRIA3
# UNITES   : NEWTON , METRE , SECONDE (N,M,S)
#
#


DEBUT(CODE=_F(NIV_PUB_WEB='INTERNET'),IGNORE_ALARM='CONTACT2_15',DEBUG=_F(SDVERI='OUI'))
#......................................................................
#  CALCUL VALIDATION DU PASSAGE DES SINGULARITES GEOMETRIQUES
#......................................................................
#
#


MAILL1=LIRE_MAILLAGE(FORMAT='MED',);

MAILL1=DEFI_GROUP(reuse =MAILL1,
                  MAILLAGE=MAILL1,
                  CREA_GROUP_MA=_F(NOM='TOUT',
                                   UNION=('LOPIN','FILIERE'),),
                  CREA_GROUP_NO=(_F(GROUP_MA='FIL_SYM1',),
                                 _F(GROUP_MA='FIL_SYM2',),
                                 _F(GROUP_MA='FIL_EXT',),
                                 _F(GROUP_MA='LOP_SYM1',),
                                 _F(GROUP_MA='LOP_SYM2',),
                                 _F(GROUP_MA='LOP_DDL',),),);
#_____________________________________________________________________
#
#                    DEFINITION DU MODELE
#_____________________________________________________________________
#
#


MO=AFFE_MODELE(MAILLAGE=MAILL1,
               AFFE=_F(TOUT='OUI',
                       PHENOMENE='MECANIQUE',
                       MODELISATION='3D',),);
#
# REORIENTATION DU MAILLAGE
#
#


MAILL1=MODI_MAILLAGE(reuse =MAILL1,
                     MAILLAGE=MAILL1,
                     ORIE_PEAU_3D=_F(GROUP_MA=('FIL_MAI1','FIL_MAI2'),),
                     );

MAILL1=MODI_MAILLAGE(reuse =MAILL1,
                     MAILLAGE=MAILL1,
                     ORIE_PEAU_3D=_F(GROUP_MA=('LOP_ESC1','LOP_ESC2'),),
                     );
#_____________________________________________________________________
#
#                    DEFINITION DES MATERIAUX
#_____________________________________________________________________
#
#


MLOPIN=DEFI_MATERIAU(ELAS=_F(E=5000.0,
                             NU=0.45000000000000001,),);

MFILIERE=DEFI_MATERIAU(ELAS=_F(E=2.E5,
                               NU=0.29999999999999999,),);

CM=AFFE_MATERIAU(MAILLAGE=MAILL1,
                 AFFE=(_F(GROUP_MA='LOPIN',
                          MATER=MLOPIN,),
                       _F(GROUP_MA='FILIERE',
                          MATER=MFILIERE,),),);
#_____________________________________________________________________
#
#                    AFFECTATION DES CONDITIONS AUX LIMITES
#                       ET DU DEPLACEMENT IMPOSE
#_____________________________________________________________________
#
#


COND_LIM=AFFE_CHAR_MECA(MODELE=MO,
                        DDL_IMPO=(_F(GROUP_NO='FIL_EXT',
                                     DX=0.0,
                                     DY=0.0,
                                     DZ=0.0,),
                                  _F(GROUP_NO='FIL_SYM1',
                                     DZ=0.0,),
                                  _F(GROUP_NO='FIL_SYM2',
                                     DX=0.0,),
                                  _F(GROUP_NO='LOP_SYM1',
                                     DZ=0.0,),
                                  _F(GROUP_NO='LOP_SYM2',
                                     DX=0.0,),),);

DDLIMP=AFFE_CHAR_MECA(MODELE=MO,
                      DDL_IMPO=_F(GROUP_NO='LOP_DDL',
                                  DY=1.0,),);

CONTACT= DEFI_CONTACT(MODELE       = MO,
                      FORMULATION  = 'DISCRETE',
                      LISSAGE      = 'OUI',
                      REAC_GEOM    = 'CONTROLE',
                      NB_ITER_GEOM = 2,
                   ZONE=(
                        _F(
                            GROUP_MA_MAIT='FIL_MAI1',
                            GROUP_MA_ESCL='LOP_ESC1',
                         ),
                        _F(
                            GROUP_MA_MAIT='FIL_MAI2',
                            GROUP_MA_ESCL='LOP_ESC2',
                         ),

                       ),
                  )

#_____________________________________________________________________
#
#                    DEFINITIONS DES FONCTIONS TEMPORELLES
#_____________________________________________________________________
#
#


DPLY=DEFI_FONCTION(NOM_PARA='INST',
                   VALE=(0.0,0.0,1.0,1.0),
                   PROL_DROITE='LINEAIRE',
                   PROL_GAUCHE='LINEAIRE',);

L_INST=DEFI_LIST_REEL(DEBUT=0.0,
                      INTERVALLE=(_F(JUSQU_A=5.0,
                                     PAS=5.0,),
                                  _F(JUSQU_A=15.0,
                                     PAS=10.0,),
                                  _F(JUSQU_A=20.0,
                                     PAS=5.0,),
                                  _F(JUSQU_A=50.0,
                                     PAS=10.0,),
                                  _F(JUSQU_A=70.0,
                                     PAS=10.0,),
                                  _F(JUSQU_A=140.0,
                                     PAS=35.0,),
                                  _F(JUSQU_A=155.0,
                                     PAS=15.0,),),);

U=STAT_NON_LINE(SOLVEUR=_F(SYME='OUI',),
                MODELE=MO,
                CHAM_MATER=CM,
                EXCIT=(_F(CHARGE=COND_LIM,),
                       _F(CHARGE=DDLIMP,
                          FONC_MULT=DPLY,),
                       ),
                CONTACT  = CONTACT,
                COMPORTEMENT=_F(RELATION='ELAS',
                             TOUT='OUI',),
                INCREMENT=_F(LIST_INST=L_INST,),
                NEWTON=_F(MATRICE='TANGENTE',
                          REAC_ITER=1,),
                CONVERGENCE=_F(RESI_GLOB_MAXI=9.9999999999999995E-07,),);

TEST_RESU(RESU=(_F(NUME_ORDRE=1,
                   GROUP_NO='K',
                   REFERENCE='ANALYTIQUE',
                   RESULTAT=U,
                   NOM_CHAM='DEPL',
                   NOM_CMP='DY',
                   VALE_CALC=5.0,
                   VALE_REFE=5.0,
                   PRECISION=1.E-2,),
                _F(NUME_ORDRE=1,
                   PARA='ITER_GLOB',
                   VALE_CALC_I=2,
                   RESULTAT=U,
                   CRITERE='ABSOLU',
                   ),
                _F(NUME_ORDRE=3,
                   GROUP_NO='K',
                   REFERENCE='ANALYTIQUE',
                   RESULTAT=U,
                   NOM_CHAM='DEPL',
                   NOM_CMP='DY',
                   VALE_CALC=20.73906602514,
                   VALE_REFE=20.825,
                   PRECISION=1.E-2,),
                _F(NUME_ORDRE=3,
                   PARA='ITER_GLOB',
                   VALE_CALC_I=2,
                   RESULTAT=U,
                   CRITERE='ABSOLU',
                   ),
                _F(NUME_ORDRE=6,
                   GROUP_NO='K',
                   REFERENCE='ANALYTIQUE',
                   RESULTAT=U,
                   NOM_CHAM='DEPL',
                   NOM_CMP='DY',
                   VALE_CALC=55.679834874125,
                   VALE_REFE=55.88,
                   PRECISION=1.E-2,),
                _F(NUME_ORDRE=6,
                   PARA='ITER_GLOB',
                   VALE_CALC_I=2,
                   RESULTAT=U,
                   CRITERE='ABSOLU',
                   ),
                _F(NUME_ORDRE=8,
                   GROUP_NO='K',
                   REFERENCE='ANALYTIQUE',
                   RESULTAT=U,
                   NOM_CHAM='DEPL',
                   NOM_CMP='DY',
                   VALE_CALC=78.677386077255,
                   VALE_REFE=78.69,
                   PRECISION=1.E-2,),
                _F(NUME_ORDRE=8,
                   PARA='ITER_GLOB',
                   VALE_CALC_I=2,
                   RESULTAT=U,
                   CRITERE='ABSOLU',
                   ),
                _F(NUME_ORDRE=10,
                   GROUP_NO='K',
                   REFERENCE='ANALYTIQUE',
                   RESULTAT=U,
                   NOM_CHAM='DEPL',
                   NOM_CMP='DY',
                   VALE_CALC=144.9001311622,
                   VALE_REFE=144.895,
                   PRECISION=1.E-2,),
                _F(NUME_ORDRE=10,
                   PARA='ITER_GLOB',
                   VALE_CALC_I=2,
                   RESULTAT=U,
                   CRITERE='ABSOLU',
                   ),
                _F(NUME_ORDRE=11,
                   GROUP_NO='K',
                   REFERENCE='ANALYTIQUE',
                   RESULTAT=U,
                   NOM_CHAM='DEPL',
                   NOM_CMP='DY',
                   VALE_CALC=155.10623192991,
                   VALE_REFE=155.096,
                   PRECISION=1.E-2,),
                _F(NUME_ORDRE=11,
                   PARA='ITER_GLOB',
                   VALE_CALC_I=2,
                   RESULTAT=U,
                   CRITERE='ABSOLU',
                   ),
                ),
          )

FIN();
#
