# TITRE INTERFACE EN CONTACT FROTTANT AVEC X-FEM
# ======================================================================
# COPYRIGHT (C) 1991 - 2015  EDF R&D                  WWW.CODE-ASTER.ORG
# THIS PROGRAM IS FREE SOFTWARE; YOU CAN REDISTRIBUTE IT AND/OR MODIFY
# IT UNDER THE TERMS OF THE GNU GENERAL PUBLIC LICENSE AS PUBLISHED BY
# THE FREE SOFTWARE FOUNDATION; EITHER VERSION 2 OF THE LICENSE, OR
# (AT YOUR OPTION) ANY LATER VERSION.
#
# THIS PROGRAM IS DISTRIBUTED IN THE HOPE THAT IT WILL BE USEFUL, BUT
# WITHOUT ANY WARRANTY; WITHOUT EVEN THE IMPLIED WARRANTY OF
# MERCHANTABILITY OR FITNESS FOR A PARTICULAR PURPOSE. SEE THE GNU
# GENERAL PUBLIC LICENSE FOR MORE DETAILS.
#
# YOU SHOULD HAVE RECEIVED A COPY OF THE GNU GENERAL PUBLIC LICENSE
# ALONG WITH THIS PROGRAM; IF NOT, WRITE TO EDF R&D CODE_ASTER,
#    1 AVENUE DU GENERAL DE GAULLE, 92141 CLAMART CEDEX, FRANCE.
# ======================================================================
#
#       CAS_TEST SSNV209B: 2D, ELEMENTS Q4, METHODE XFEM

# SURFACE RIGIDE, MODELE1_63 PEUT ETRE IGNOREE
DEBUT(CODE=_F(NIV_PUB_WEB='INTERNET'),IGNORE_ALARM='MODELE1_63',DEBUG=_F(SDVERI='OUI'))


#......................................................
#  CALCUL TEST ELEMENTS FINIS XFEM ET CONTACT 2D QUAD4
#  PLAQUE EN CONTACT FROTTANT SUR BATI RIGIDE
#  AVEC XFEM
#......................................................
#
# La fissure coincide avec les faces du maillage
#
#----------------------------------------------
#                MAILLAGE
#----------------------------------------------

MAILLAG1=LIRE_MAILLAGE(FORMAT='MED',VERI_MAIL=_F(VERIF='OUI'));

MAILLAG1=DEFI_GROUP(reuse =MAILLAG1,
                    MAILLAGE=MAILLAG1,
                    CREA_GROUP_NO= (_F(GROUP_MA='SURF'),
                                    _F(GROUP_MA='LIG1',
                                       NOM='NLIG1'),
                                    _F(OPTION='PLAN',
                                       NOM='NBAT',
                                       GROUP_NO_CENTRE='P1',
                                       VECT_NORMALE= (0.,1.),
                                       PRECISION=0.009)),
                    CREA_GROUP_MA= (_F(OPTION='BANDE',
                                       NOM='PLAQ',
                                       GROUP_NO_CENTRE='P4',
                                       VECT_NORMALE= (0.,1.),
                                       DIST=0.0399)),
                    INFO=1);

MAILLAG1=DEFI_GROUP(reuse =MAILLAG1,
                    MAILLAGE=MAILLAG1,
                    CREA_GROUP_NO=(_F(OPTION='ENV_SPHERE',
                                      NOM='PPR',
                                      POINT=(0.03875,0.),
                                      RAYON=0.000001,
                                      PRECISION=0.00001),
                                   _F(NOM='NFISSU',
                                      OPTION='PLAN',
                                      POINT=(0.,0.),
                                      VECT_NORMALE=(0.,1.),
                                      PRECISION=1E-7)),
                    INFO=1);

MAILLAG1=MODI_MAILLAGE(reuse=MAILLAG1,
                       MAILLAGE=MAILLAG1,
                       ORIE_PEAU_2D=(_F(GROUP_MA = 'LIG2'),
                                     _F(GROUP_MA = 'LIG3'),
                                     _F(GROUP_MA = 'LIG4')));
# visualiser le maillage
IMPR_RESU(UNITE=81,
          FORMAT='MED',
          RESU=_F(MAILLAGE=MAILLAG1))

#----------------------------------------------
#                   MODELE ET FISSURE
#----------------------------------------------

MODELEIN=AFFE_MODELE(MAILLAGE=MAILLAG1,
                     AFFE=(_F(GROUP_MA=('LIG3'),
                              PHENOMENE='MECANIQUE',
                              MODELISATION='D_PLAN'),
                           _F(GROUP_MA=('LIG1'),
                              PHENOMENE='MECANIQUE',
                              MODELISATION='D_PLAN'),
                           _F(GROUP_MA=('SURF'),
                              PHENOMENE='MECANIQUE',
                              MODELISATION='D_PLAN'),
                           _F(GROUP_MA=('LIG2'),
                              PHENOMENE='MECANIQUE',
                              MODELISATION='D_PLAN'),
                           _F(GROUP_MA=('LIG4'),
                              PHENOMENE='MECANIQUE',
                              MODELISATION='D_PLAN')),
                     INFO=1);

# FORME ANALYTIQUE POUR LA FISSURE

LN=FORMULE(NOM_PARA=('X','Y'),VALE='Y');

FISS=DEFI_FISS_XFEM(MAILLAGE=MAILLAG1,
                    TYPE_DISCONTINUITE='INTERFACE',
                    DEFI_FISS=_F(FONC_LN=LN),
                    INFO=1);

# MODELE XFEM

MODELEK=MODI_MODELE_XFEM(MODELE_IN=MODELEIN,
                         FISSURE=FISS,
                         CONTACT='STANDARD',
                         INFO=1);

#----------------------------------------------
#                   MATERIAU
#----------------------------------------------

E=1.3E11
nu=0.2
rho=7800.

CHABNO=CREA_CHAMP(TYPE_CHAM='NOEU_NEUT_R',
                  OPERATION='EXTR',
                  FISSURE=FISS,
                  NOM_CHAM='LNNO');

NU_F=DEFI_FONCTION(NOM_PARA='NEUT1',
                   VALE=(-1.0,0.0,-1.E-9,0.0,1.E-9,nu,1.0,nu));

E_F=DEFI_FONCTION(NOM_PARA='NEUT1',
                  VALE=(-1.0,1.E16,-1.E-9,1.E16,1.E-9,E,1.0,E));

MATVAR=DEFI_MATERIAU(ELAS=_F(E=E,NU=nu,RHO=rho));

CHAMPMA1=AFFE_MATERIAU(MAILLAGE=MAILLAG1,
                       MODELE=MODELEK,
                       AFFE=(_F(GROUP_MA=('SURF'),
                                MATER=MATVAR)),
                       AFFE_VARC=_F(NOM_VARC='NEUT1',
                                    CHAM_GD=CHABNO),
                     );

#----------------------------------------------
#                   CHARGEMENTS
#----------------------------------------------


CTXFEM = DEFI_CONTACT(MODELE         = MODELEK,
                      FORMULATION    = 'XFEM',
                      FROTTEMENT     = 'COULOMB',
                      ITER_CONT_MAXI = 4,
                      ITER_FROT_MAXI = 20,
                      REAC_GEOM      = 'SANS',ELIM_ARETE     = 'ELIM',
                      ZONE=(
                            _F(
                               FISS_MAIT      = FISS,
                               INTEGRATION    = 'NOEUD',
                               CONTACT_INIT   = 'OUI',
                               COULOMB        = 1.0,
                               ALGO_CONT      = 'STANDARD',
                               COEF_CONT      = 10000.,
                               ALGO_FROT      = 'STANDARD',
                               COEF_FROT      = 10000.,
                             ),
                         ),
                   );

H_plus = -2.

CHCINE=AFFE_CHAR_MECA(MODELE=MODELEK,
#                     ENCASTREMENT DU BAS
                      DDL_IMPO=(_F(GROUP_NO='NBAT',
                                    DX=0.,
                                    DY=0.),),
#                 Condition sur les noeuds appartenant à l'interface
                      LIAISON_GROUP=(
                                    # --- DX ---
                                    _F(GROUP_NO_1 = ('NFISSU'),
                                       GROUP_NO_2 = ('NFISSU'),
                                       DDL_1      = ('DX', 'H1X'),
                                       DDL_2      = ('DX', 'H1X'),
                                       COEF_MULT_1= (0., 0.),
                                       COEF_MULT_2= (1., H_plus),
                                       COEF_IMPO= 0.),
                                    # --- DY ---
                                    _F(GROUP_NO_1 = ('NFISSU'),
                                       GROUP_NO_2 = ('NFISSU'),
                                       DDL_1      = ('DY', 'H1Y'),
                                       DDL_2      = ('DY', 'H1Y'),
                                       COEF_MULT_1= (0., 0.),
                                       COEF_MULT_2= (1., H_plus),
                                       COEF_IMPO= 0.),),
                     );

CHMECA=AFFE_CHAR_MECA(MODELE=MODELEK,
#                     FORCE IMPOSEE EN A
                      PRES_REP=(_F(GROUP_MA = 'LIG3',
                                   PRES = 5.E7)));

def pr(y) :
   if y  < 1e-15:  return 0.E07
   if y  > 1e-15:  return 15.E7
   if y == 1e-15:  return 0.

FCTPRES = FORMULE(VALE='pr(Y)',
                  NOM_PARA=('X','Y'));

CHAF=AFFE_CHAR_MECA_F(MODELE=MODELEK,
                      PRES_REP=_F(GROUP_MA = ('LIG2','LIG4'),
                                  PRES=FCTPRES));

#----------------------------------------------
#                   RESOLUTION
#----------------------------------------------

RAMPE=DEFI_FONCTION(NOM_PARA='INST',
                    PROL_GAUCHE='LINEAIRE',
                    PROL_DROITE='LINEAIRE',
                    VALE=(0.0,0.0,1.0,1.0));

L_INS1=DEFI_LIST_REEL(DEBUT=0.0,INTERVALLE=_F(JUSQU_A=1.0,NOMBRE=1));

# LES SYSTEMES LINEAIRES SONT DIFFICILES A RESOUDRE.
# ON DEVERROUILLE LA DETECTION DE SINGULARITE. LE PROCESSUS DE NEWTON
# CORRIGE LES EVENTUELLES DERIVES.
UTOT1=STAT_NON_LINE(MODELE=MODELEK,
                    CHAM_MATER=CHAMPMA1,
                    EXCIT=(_F(CHARGE=CHCINE),
                           _F(CHARGE=CHMECA,
                              FONC_MULT=RAMPE),
                           _F(CHARGE=CHAF,
                              FONC_MULT=RAMPE),
                           ),
                    CONTACT  = CTXFEM,
                    COMPORTEMENT=_F(RELATION='ELAS',
                                 GROUP_MA='SURF',
                                 ),
                    INCREMENT=_F(LIST_INST=L_INS1,
                                 INST_FIN=1.0,
                                 ),
                    CONVERGENCE=_F(ARRET='OUI',
                                   ITER_GLOB_MAXI=40,
                                   RESI_GLOB_RELA=1.E-6,
                                   ),
                    SOLVEUR=_F(METHODE='MUMPS',

                               NPREC=-1,
                               ),
                    NEWTON=_F(REAC_ITER=1),
                    ARCHIVAGE=_F(CHAM_EXCLU='VARI_ELGA'),
                    INFO=2,
                    );

#-----------------------------------------------------------
#             POST-TRAITEMENT POUR LA VISUALISATION
#-----------------------------------------------------------

MA_XFEM=POST_MAIL_XFEM(
                       MODELE        = MODELEK)

MA_XFEM=DEFI_GROUP(reuse=MA_XFEM,
                   MAILLAGE=MA_XFEM,
                   CREA_GROUP_NO=(_F(OPTION='ENV_SPHERE',
                                     NOM='PPA',
                                     POINT=(0.,0.),
                                     RAYON=0.000001,
                                     PRECISION=0.00001),
                                  _F(OPTION='ENV_SPHERE',
                                     NOM='PPB',
                                     POINT=(0.00125,0.),
                                     RAYON=0.000001,
                                     PRECISION=0.00001),
                                  _F(OPTION='ENV_SPHERE',
                                     NOM='PPC',
                                     POINT=(0.005,0.),
                                     RAYON=0.000001,
                                     PRECISION=0.00001),
                                  _F(OPTION='ENV_SPHERE',
                                     NOM='PPD',
                                     POINT=(0.0075,0.),
                                     RAYON=0.000001,
                                     PRECISION=0.00001),
                                  _F(OPTION='ENV_SPHERE',
                                     NOM='PPE',
                                     POINT=(0.01125,0.),
                                     RAYON=0.000001,
                                     PRECISION=0.00001),
                                  ),
                   INFO=1);

MOD_VISU=AFFE_MODELE(MAILLAGE=MA_XFEM,
                     AFFE=_F(TOUT='OUI',
                             PHENOMENE='MECANIQUE',
                             MODELISATION='D_PLAN'))

RES_XFEM=POST_CHAM_XFEM(MODELE_VISU   = MOD_VISU,
                        RESULTAT      = UTOT1,
                        )

#----------------------------------------------
#                   POST RELEVE
#----------------------------------------------

DEP_NFI=POST_RELEVE_T(ACTION=_F(INTITULE='DEPLE',
                                GROUP_NO=('NFISSU'),
                                RESULTAT=RES_XFEM,
                                NOM_CHAM='DEPL',
                                INST=1.0,
                                TOUT_CMP='OUI',
                                OPERATION='EXTRACTION'));

DEP_NFI = CALC_TABLE(reuse = DEP_NFI,
                     TABLE = DEP_NFI,
                     ACTION = (_F(OPERATION = 'FILTRE',
                                  NOM_PARA  = 'NOEUD',
                                  CRIT_COMP = 'REGEXP',
                                  VALE_K    = 'N[^P]')));

DEP_NFI = CALC_TABLE(reuse = DEP_NFI,
                     TABLE = DEP_NFI,
                     ACTION=_F(OPERATION='TRI',
                               NOM_PARA='COOR_X',
                               ORDRE='CROISSANT'));

IMPR_TABLE(TABLE=DEP_NFI);

VC_PPR=POST_RELEVE_T(ACTION=_F(INTITULE='CONT_NOEU',
                               GROUP_NO=('PPR'),
                               RESULTAT=UTOT1,
                               NOM_CHAM='CONT_NOEU',
                               INST=1.0,
                               TOUT_CMP='OUI',
                               OPERATION='EXTRACTION'));

IMPR_TABLE(TABLE=VC_PPR);

DEP_PPA=POST_RELEVE_T(ACTION=_F(INTITULE='DEPLE',
                                GROUP_NO=('PPA'),
                                RESULTAT=RES_XFEM,
                                NOM_CHAM='DEPL',
                                INST=1.0,
                                TOUT_CMP='OUI',
                                OPERATION='EXTRACTION'));
LAG_PPA = CALC_TABLE(TABLE = DEP_PPA,
                     ACTION = (_F(OPERATION = 'FILTRE',
                                  NOM_PARA  = 'NOEUD',
                                  CRIT_COMP = 'REGEXP',
                                  VALE_K    = 'N[^P]')));
DEP_PPA = CALC_TABLE(reuse = DEP_PPA,
                     TABLE = DEP_PPA,
                     ACTION = (_F(OPERATION = 'FILTRE',
                                  NOM_PARA  = 'NOEUD',
                                  CRIT_COMP = 'REGEXP',
                                  VALE_K    = 'N[^M]')));


DEP_PPB=POST_RELEVE_T(ACTION=_F(INTITULE='DEPLE',
                                GROUP_NO=('PPB'),
                                RESULTAT=RES_XFEM,
                                NOM_CHAM='DEPL',
                                INST=1.0,
                                TOUT_CMP='OUI',
                                OPERATION='EXTRACTION'));
LAG_PPB = CALC_TABLE(TABLE = DEP_PPB,
                     ACTION = (_F(OPERATION = 'FILTRE',
                                  NOM_PARA  = 'NOEUD',
                                  CRIT_COMP = 'REGEXP',
                                  VALE_K    = 'N[^P]')));
DEP_PPB = CALC_TABLE(reuse = DEP_PPB,
                     TABLE = DEP_PPB,
                     ACTION = (_F(OPERATION = 'FILTRE',
                                  NOM_PARA  = 'NOEUD',
                                  CRIT_COMP = 'REGEXP',
                                  VALE_K    = 'N[^M]')));


DEP_PPC=POST_RELEVE_T(ACTION=_F(INTITULE='DEPLE',
                                GROUP_NO=('PPC'),
                                RESULTAT=RES_XFEM,
                                NOM_CHAM='DEPL',
                                INST=1.0,
                                TOUT_CMP='OUI',
                                OPERATION='EXTRACTION'));
LAG_PPC = CALC_TABLE(TABLE = DEP_PPC,
                     ACTION = (_F(OPERATION = 'FILTRE',
                                  NOM_PARA  = 'NOEUD',
                                  CRIT_COMP = 'REGEXP',
                                  VALE_K    = 'N[^P]')));
DEP_PPC = CALC_TABLE(reuse = DEP_PPC,
                     TABLE = DEP_PPC,
                     ACTION = (_F(OPERATION = 'FILTRE',
                                  NOM_PARA  = 'NOEUD',
                                  CRIT_COMP = 'REGEXP',
                                  VALE_K    = 'N[^M]')));

DEP_PPD=POST_RELEVE_T(ACTION=_F(INTITULE='DEPLE',
                                GROUP_NO=('PPD'),
                                RESULTAT=RES_XFEM,
                                NOM_CHAM='DEPL',
                                INST=1.0,
                                TOUT_CMP='OUI',
                                OPERATION='EXTRACTION'));
LAG_PPD = CALC_TABLE(TABLE = DEP_PPD,
                     ACTION = (_F(OPERATION = 'FILTRE',
                                  NOM_PARA  = 'NOEUD',
                                  CRIT_COMP = 'REGEXP',
                                  VALE_K    = 'N[^P]')));
DEP_PPD = CALC_TABLE(reuse = DEP_PPD,
                     TABLE = DEP_PPD,
                     ACTION = (_F(OPERATION = 'FILTRE',
                                  NOM_PARA  = 'NOEUD',
                                  CRIT_COMP = 'REGEXP',
                                  VALE_K    = 'N[^M]')));

DEP_PPE=POST_RELEVE_T(ACTION=_F(INTITULE='DEPLE',
                                GROUP_NO=('PPE'),
                                RESULTAT=RES_XFEM,
                                NOM_CHAM='DEPL',
                                INST=1.0,
                                TOUT_CMP='OUI',
                                OPERATION='EXTRACTION'));
LAG_PPE = CALC_TABLE(TABLE = DEP_PPE,
                     ACTION = (_F(OPERATION = 'FILTRE',
                                  NOM_PARA  = 'NOEUD',
                                  CRIT_COMP = 'REGEXP',
                                  VALE_K    = 'N[^P]')));
DEP_PPE = CALC_TABLE(reuse = DEP_PPE,
                     TABLE = DEP_PPE,
                     ACTION = (_F(OPERATION = 'FILTRE',
                                  NOM_PARA  = 'NOEUD',
                                  CRIT_COMP = 'REGEXP',
                                  VALE_K    = 'N[^M]')));

#----------------------------------------------
#                   TEST TABLE
#----------------------------------------------

preci=2.e-2;

TEST_TABLE(CRITERE='ABSOLU',
           REFERENCE='AUTRE_ASTER',
           PRECISION=9.9999999999999998E-13,
           VALE_CALC= 3.093088904310E-29,
           VALE_REFE=0.0,
           NOM_PARA='JEU',
           TYPE_TEST='MAX',
           TABLE=VC_PPR,)

TEST_TABLE(CRITERE='RELATIF',
           REFERENCE='AUTRE_ASTER',
           PRECISION=1.E-3,
           VALE_CALC=104831.537451,
           VALE_REFE=1.048637688477E5,
           NOM_PARA='RN',
           TYPE_TEST='MAX',
           TABLE=VC_PPR,)

TEST_TABLE(CRITERE='RELATIF',
           REFERENCE='AUTRE_ASTER',
           PRECISION=0.02,
           VALE_CALC=2.85702432491E-05,
           VALE_REFE=2.84594384304E-05,
           NOM_PARA='DX',
           TYPE_TEST='MAX',
           TABLE=DEP_PPA,)

TEST_TABLE(CRITERE='RELATIF',
           REFERENCE='AUTRE_ASTER',
           PRECISION=0.02,
           VALE_CALC=2.71904898361E-05,
           VALE_REFE=2.70792364103E-05,
           NOM_PARA='DX',
           TYPE_TEST='MAX',
           TABLE=DEP_PPB,)

TEST_TABLE(CRITERE='RELATIF',
           REFERENCE='AUTRE_ASTER',
           PRECISION=0.02,
           VALE_CALC=2.28274254689E-05,
           VALE_REFE=2.27402555462E-05,
           NOM_PARA='DX',
           TYPE_TEST='MAX',
           TABLE=DEP_PPC,)

TEST_TABLE(CRITERE='RELATIF',
           REFERENCE='AUTRE_ASTER',
           PRECISION=0.02,
           VALE_CALC=1.97833727185E-05,
           VALE_REFE=1.97270669318E-05,
           NOM_PARA='DX',
           TYPE_TEST='MAX',
           TABLE=DEP_PPD,)

TEST_TABLE(CRITERE='RELATIF',
           REFERENCE='AUTRE_ASTER',
           PRECISION=0.02,
           VALE_CALC=1.53973103751E-05,
           VALE_REFE=1.53641594362E-05,
           NOM_PARA='DX',
           TYPE_TEST='MAX',
           TABLE=DEP_PPE,)

TEST_TABLE(CRITERE='ABSOLU',
           REFERENCE='AUTRE_ASTER',
           PRECISION=0.02,
           VALE_CALC= 1.81268263E-42,
           VALE_REFE=0.0,
           NOM_PARA='LAGS_C',
           TYPE_TEST='MAX',
           TABLE=LAG_PPA,)

TEST_TABLE(CRITERE='ABSOLU',
           REFERENCE='AUTRE_ASTER',
           PRECISION=0.02,
           VALE_CALC= 1.63271936E-26,
           VALE_REFE=0.0,
           NOM_PARA='LAGS_C',
           TYPE_TEST='MAX',
           TABLE=LAG_PPB,)

TEST_TABLE(CRITERE='RELATIF',
           REFERENCE='AUTRE_ASTER',
           PRECISION=0.050000000000000003,
           VALE_CALC=-14078327.0343,
           VALE_REFE=-1.4724675280626999E7,
           NOM_PARA='LAGS_C',
           TYPE_TEST='MAX',
           TABLE=LAG_PPC,)

TEST_TABLE(CRITERE='RELATIF',
           REFERENCE='AUTRE_ASTER',
           PRECISION=0.02,
           VALE_CALC=-24253043.2263,
           VALE_REFE=-2.4583481034903001E7,
           NOM_PARA='LAGS_C',
           TYPE_TEST='MAX',
           TABLE=LAG_PPD,)

TEST_TABLE(CRITERE='RELATIF',
           REFERENCE='AUTRE_ASTER',
           PRECISION=0.02,
           VALE_CALC=-34560791.8892,
           VALE_REFE=-3.4650090742044002E7,
           NOM_PARA='LAGS_C',
           TYPE_TEST='MAX',
           TABLE=LAG_PPE,)

FIN();
