# TITRE CYLINDRE DANS UN ALESAGE AVEC CONTACT ET FROTTEMENT
# ======================================================================
# COPYRIGHT (C) 1991 - 2012  EDF R&D                  WWW.CODE-ASTER.ORG
# THIS PROGRAM IS FREE SOFTWARE; YOU CAN REDISTRIBUTE IT AND/OR MODIFY
# IT UNDER THE TERMS OF THE GNU GENERAL PUBLIC LICENSE AS PUBLISHED BY
# THE FREE SOFTWARE FOUNDATION; EITHER VERSION 2 OF THE LICENSE, OR
# (AT YOUR OPTION) ANY LATER VERSION.
#
# THIS PROGRAM IS DISTRIBUTED IN THE HOPE THAT IT WILL BE USEFUL, BUT
# WITHOUT ANY WARRANTY; WITHOUT EVEN THE IMPLIED WARRANTY OF
# MERCHANTABILITY OR FITNESS FOR A PARTICULAR PURPOSE. SEE THE GNU
# GENERAL PUBLIC LICENSE FOR MORE DETAILS.
#
# YOU SHOULD HAVE RECEIVED A COPY OF THE GNU GENERAL PUBLIC LICENSE
# ALONG WITH THIS PROGRAM; IF NOT, WRITE TO EDF R&D CODE_ASTER,
#    1 AVENUE DU GENERAL DE GAULLE, 92141 CLAMART CEDEX, FRANCE.
# ======================================================================
#       CAS_TEST SSNV127: 2D (Q8), METHODE CONTINUE

DEBUT(CODE=_F(NIV_PUB_WEB='INTERNET'),DEBUG=_F(SDVERI='OUI'))

#PRE_GIBI();

#_____________________________________________________________________
#
#                    LECTURE DE SSNV127H.MGIB
#_____________________________________________________________________
#

SSNV127H=LIRE_MAILLAGE(FORMAT='MED',);

SSNV127H=DEFI_GROUP(reuse =SSNV127H,
                    MAILLAGE=SSNV127H,
                    CREA_GROUP_NO=(_F(GROUP_MA='CC4',),
                                   _F(GROUP_MA='AD1',),
                                   _F(GROUP_MA='AD2',),
                                   _F(GROUP_MA='AD3',),
                                   _F(GROUP_MA='BD3',),
                                   _F(GROUP_MA='AD4',),
                                   _F(GROUP_MA='BD4',),
                                   _F(GROUP_MA='BCC2',
                                      OPTION='NOEUD_ORDO',
                                      NOM='RELEVE',
                                      GROUP_NO_ORIG='A1',
                                      GROUP_NO_EXTR='B2',),),);

# POUR ELIMINER LES NOEUDS COMMUNS AUX SURFACES DE CONTACT
SSNV127H=DEFI_GROUP(reuse=SSNV127H,
                    MAILLAGE=SSNV127H,
                    CREA_GROUP_NO=(_F(GROUP_MA='BCC1',),
                                   _F(GROUP_MA='BCC2',),
                                   _F(INTERSEC=('BCC1','BCC2',),
                                      NOM='BCC_SGN'),),)

#_____________________________________________________________________
#
#                    DEFINITION DU MODELE
#_____________________________________________________________________
#

MO=AFFE_MODELE(MAILLAGE=SSNV127H,
               AFFE=_F(TOUT='OUI',
                       PHENOMENE='MECANIQUE',
                       MODELISATION='C_PLAN',),);

SSNV127H=MODI_MAILLAGE(reuse =SSNV127H,
                       MAILLAGE=SSNV127H,
                       ORIE_PEAU_2D=_F(GROUP_MA='BCC1',),
                      );

SSNV127H=MODI_MAILLAGE(reuse =SSNV127H,
                       MAILLAGE=SSNV127H,
                       ORIE_PEAU_2D=_F(GROUP_MA='BCC2',),
                      );
#_____________________________________________________________________
#
#                    DEFINITION DES MATERIAUX
#_____________________________________________________________________
#

MAT1=DEFI_MATERIAU(ELAS=_F(E=2.10000000000E11,
                           NU=0.29999999999999999,),);

CHMAT=AFFE_MATERIAU(MAILLAGE=SSNV127H,
                    AFFE=_F(GROUP_MA='SURFF',
                            MATER=MAT1,),);
#_____________________________________________________________________
#
#              AFFECTATION DES CONDITIONS AUX LIMITES
#                       ET DU CHARGEMENT
#_____________________________________________________________________
#

CHA1=AFFE_CHAR_MECA(MODELE=MO,
                    DDL_IMPO=(_F(GROUP_NO='CC4',
                                 DX=0.0,
                                 DY=0.0,),
                              _F(GROUP_NO='AD1',
                                 DX=0.0,),
                              _F(GROUP_NO='AD2',
                                 DX=0.0,),
                              _F(GROUP_NO='AD3',
                                 DX=0.0,),
                              _F(GROUP_NO='AD4',
                                 DX=0.0,),
                              _F(GROUP_NO='BD3',
                                 DX=0.0,),
                              _F(GROUP_NO='BD4',
                                 DX=0.0,),),
                    FORCE_NODALE=_F(GROUP_NO='O2',
                                    FY=-9.37500E5,),);


CHA2 = DEFI_CONTACT(MODELE         = MO,
                    FORMULATION    = 'CONTINUE',
                    FROTTEMENT     = 'COULOMB',
                    ALGO_RESO_CONT = 'NEWTON',
                    ALGO_RESO_GEOM = 'NEWTON',
                    ALGO_RESO_FROT = 'NEWTON',
                    ADAPT_COEF     = 'OUI',
                    ZONE =(
                           _F(
                             GROUP_MA_ESCL = 'BCC2',
                             GROUP_MA_MAIT = 'BCC1',
                             SANS_GROUP_NO = 'BCC_SGN',
                             COULOMB       = 0.4,
                             ALGO_CONT     = 'STANDARD',
                             COEF_CONT     = 10.,
                             ALGO_FROT     = 'STANDARD',
                             COEF_FROT     = 10.,
                             ),
                          ),
                   );

#_____________________________________________________________________
#
#               DEFINITION DES FONCTIONS TEMPORELLES
#_____________________________________________________________________
#

RAMPE=DEFI_FONCTION(NOM_PARA='INST',
                    VALE=(0.0,0.0,1.0,1.0,),
                    PROL_DROITE='LINEAIRE',
                    PROL_GAUCHE='LINEAIRE',);

L_INST=DEFI_LIST_REEL(DEBUT=0.0,
                      INTERVALLE=_F(JUSQU_A=1.0,
                                    NOMBRE=1,),);

#_____________________________________________________________________
#
#                            RESOLUTION
#_____________________________________________________________________
#

U=STAT_NON_LINE(MODELE=MO,
                CHAM_MATER=CHMAT,
                EXCIT=(_F(CHARGE=CHA1,
                          FONC_MULT=RAMPE,),
                       ),
                CONTACT  = CHA2,
                COMPORTEMENT=_F(RELATION='ELAS',),
                INCREMENT=_F(LIST_INST=L_INST,),
                NEWTON=_F(MATRICE='TANGENTE',
                          REAC_ITER=1,),
                CONVERGENCE=_F(ITER_GLOB_MAXI=20),
                );

U=CALC_CHAMP(reuse=U,CONTRAINTE=('SIGM_ELNO'),RESULTAT=U)


TPRESS=POST_RELEVE_T(ACTION=_F(INTITULE='PRESS',
                              GROUP_NO='RELEVE',
                              RESULTAT=U,
                              INST=1.,
                              NOM_CHAM='SIGM_ELNO',
                              NOM_CMP='SIXX',
                              REPERE='POLAIRE',
                              OPERATION='EXTRACTION',),);


TCONT=POST_RELEVE_T(ACTION=_F(INTITULE='CONT',
                              GROUP_NO='RELEVE',
                              RESULTAT=U,
                              INST=1.,
                              NOM_CHAM='CONT_NOEU',
                              TOUT_CMP='OUI',
                              OPERATION='EXTRACTION',),);

IMPR_TABLE(TABLE=TPRESS)
IMPR_TABLE(TABLE=TCONT)

#_____________________________________________________________________
#
#                  TRACER DE COURBES INTERACTIF
#_____________________________________________________________________
#

COS    = FORMULE( NOM_PARA=('COOR_X','COOR_Y'),
                  VALE='-180.*atan2(COOR_X,COOR_Y)/pi')

TPRESS = CALC_TABLE(TABLE=TPRESS,reuse=TPRESS,
                    ACTION=_F(OPERATION='OPER',
                              FORMULE=COS,
                              NOM_PARA='COS'),)

TPRES  = CALC_TABLE(TABLE=TPRESS,
                    ACTION=_F(OPERATION='FILTRE',
                              NOM_PARA='COS',
                              CRIT_COMP='LE',
                              VALE=180.),)

IMPR_TABLE(TABLE=TPRESS)

CONT  = FORMULE(NOM_PARA=('CONT'),
                VALE='-1.E6*CONT')

TCONT = CALC_TABLE(TABLE=TCONT,reuse=TCONT,
                   ACTION=(_F(OPERATION='OPER',
                              FORMULE=CONT,
                              NOM_PARA='INDICATEUR'),
                           _F(OPERATION='OPER',
                              FORMULE=COS,
                              NOM_PARA='COS')))

TCON  = CALC_TABLE(TABLE=TCONT,
                   ACTION=_F(OPERATION='FILTRE',
                             NOM_PARA='COS',
                              CRIT_COMP='LE',
                             VALE=180.),)

IMPR_TABLE(TABLE=TCONT)

IMPR_TABLE(
   UNITE=30,
   FORMAT='XMGRACE',
   TABLE=TPRES,
   NOM_PARA=('COS','SIXX'),
   LEGENDE='Pression',
   LEGENDE_X = 'ABS',
   LEGENDE_Y = 'PRESSION',
   BORNE_X   = (0.,90.),
   BORNE_Y   = (2.E6,-2.E7),
   GRILLE_X  = 10.,
   GRILLE_Y  = 2.E6,
   COULEUR=6,
)

#_____________________________________________________________________
#
# TEST DE LA CONFORMITE AVEC LA SOLUTION DE REFERENCE ANALYTIQUE
#_____________________________________________________________________
#

#
# VALEUR DE PRESSION
#

TEST_TABLE(REFERENCE='ANALYTIQUE',
           PRECISION=0.058999999999999997,
           VALE_CALC=-1.88234391E+07,
           VALE_REFE=-1.7813000E7,
           NOM_PARA='SIXX',
           TABLE=TPRESS,
           FILTRE=(_F(NOM_PARA='INST',
                      VALE=1.0,),
                   _F(NOM_PARA='NOEUD',
                      VALE_K='N383',),
                   ),
           )

TEST_TABLE(REFERENCE='ANALYTIQUE',
           PRECISION=0.052999999999999999,
           VALE_CALC=-1.87385970E+07,
           VALE_REFE=-1.7813000E7,
           NOM_PARA='SIXX',
           TABLE=TPRESS,
           FILTRE=(_F(NOM_PARA='INST',
                      VALE=1.0,),
                   _F(NOM_PARA='NOEUD',
                      VALE_K='N379',),
                   ),
           )

TEST_TABLE(REFERENCE='ANALYTIQUE',
           PRECISION=0.043999999999999997,
           VALE_CALC=-1.85219889E+07,
           VALE_REFE=-1.7750000E7,
           NOM_PARA='SIXX',
           TABLE=TPRESS,
           FILTRE=(_F(NOM_PARA='INST',
                      VALE=1.0,),
                   _F(NOM_PARA='NOEUD',
                      VALE_K='N369',),
                   ),
           )

TEST_TABLE(REFERENCE='ANALYTIQUE',
           PRECISION=0.040899999999999999,
           VALE_CALC=-1.84103126E+07,
           VALE_REFE=-1.7688000E7,
           NOM_PARA='SIXX',
           TABLE=TPRESS,
           FILTRE=(_F(NOM_PARA='INST',
                      VALE=1.0,),
                   _F(NOM_PARA='NOEUD',
                      VALE_K='N368',),
                   ),
           )

TEST_TABLE(REFERENCE='ANALYTIQUE',
           PRECISION=0.029180000000000001,
           VALE_CALC=-1.81071268E+07,
           VALE_REFE=-1.7594000E7,
           NOM_PARA='SIXX',
           TABLE=TPRESS,
           FILTRE=(_F(NOM_PARA='INST',
                      VALE=1.0,),
                   _F(NOM_PARA='NOEUD',
                      VALE_K='N353',),
                   ),
           )

TEST_TABLE(REFERENCE='ANALYTIQUE',
           PRECISION=0.019099999999999999,
           VALE_CALC=-1.78018612E+07,
           VALE_REFE=-1.7470000E7,
           NOM_PARA='SIXX',
           TABLE=TPRESS,
           FILTRE=(_F(NOM_PARA='INST',
                      VALE=1.0,),
                   _F(NOM_PARA='NOEUD',
                      VALE_K='N352',),
                   ),
           )

TEST_TABLE(REFERENCE='ANALYTIQUE',
           PRECISION=7.0000000000000001E-3,
           VALE_CALC=-1.73912943E+07,
           VALE_REFE=-1.7312000E7,
           NOM_PARA='SIXX',
           TABLE=TPRESS,
           FILTRE=(_F(NOM_PARA='INST',
                      VALE=1.0,),
                   _F(NOM_PARA='NOEUD',
                      VALE_K='N328',),
                   ),
           )

TEST_TABLE(REFERENCE='ANALYTIQUE',
           PRECISION=0.019,
           VALE_CALC=-1.68231825E+07,
           VALE_REFE=-1.7125000E7,
           NOM_PARA='SIXX',
           TABLE=TPRESS,
           FILTRE=(_F(NOM_PARA='INST',
                      VALE=1.0,),
                   _F(NOM_PARA='NOEUD',
                      VALE_K='N327',),
                   ),
           )

TEST_TABLE(REFERENCE='ANALYTIQUE',
           PRECISION=0.029000000000000001,
           VALE_CALC=-1.65319098E+07,
           VALE_REFE=-1.6906000E7,
           NOM_PARA='SIXX',
           TABLE=TPRESS,
           FILTRE=(_F(NOM_PARA='INST',
                      VALE=1.0,),
                   _F(NOM_PARA='NOEUD',
                      VALE_K='N297',),
                   ),
           )

TEST_TABLE(REFERENCE='ANALYTIQUE',
           PRECISION=0.021999999999999999,
           VALE_CALC=-1.63677071E+07,
           VALE_REFE=-1.6656000E7,
           NOM_PARA='SIXX',
           TABLE=TPRESS,
           FILTRE=(_F(NOM_PARA='INST',
                      VALE=1.0,),
                   _F(NOM_PARA='NOEUD',
                      VALE_K='N296',),
                   ),
           )

TEST_TABLE(REFERENCE='ANALYTIQUE',
           PRECISION=0.034000000000000002,
           VALE_CALC=-1.60548563E+07,
           VALE_REFE=-1.6343000E7,
           NOM_PARA='SIXX',
           TABLE=TPRESS,
           FILTRE=(_F(NOM_PARA='INST',
                      VALE=1.0,),
                   _F(NOM_PARA='NOEUD',
                      VALE_K='N282',),
                   ),
           )

TEST_TABLE(REFERENCE='ANALYTIQUE',
           PRECISION=0.025999999999999999,
           VALE_CALC=-1.56068976E+07,
           VALE_REFE=-1.5937000E7,
           NOM_PARA='SIXX',
           TABLE=TPRESS,
           FILTRE=(_F(NOM_PARA='INST',
                      VALE=1.0,),
                   _F(NOM_PARA='NOEUD',
                      VALE_K='N281',),
                   ),
           )

TEST_TABLE(REFERENCE='ANALYTIQUE',
           PRECISION=0.035999999999999997,
           VALE_CALC=-1.48829024E+07,
           VALE_REFE=-1.5406000E7,
           NOM_PARA='SIXX',
           TABLE=TPRESS,
           FILTRE=(_F(NOM_PARA='INST',
                      VALE=1.0,),
                   _F(NOM_PARA='NOEUD',
                      VALE_K='N245',),
                   ),
           )

TEST_TABLE(REFERENCE='ANALYTIQUE',
           PRECISION=0.043999999999999997,
           VALE_CALC=-1.41775920E+07,
           VALE_REFE=-1.4781000E7,
           NOM_PARA='SIXX',
           TABLE=TPRESS,
           FILTRE=(_F(NOM_PARA='INST',
                      VALE=1.0,),
                   _F(NOM_PARA='NOEUD',
                      VALE_K='N244',),
                   ),
           )

TEST_TABLE(REFERENCE='ANALYTIQUE',
           PRECISION=0.086999999999999994,
           VALE_CALC=-1.29292173E+07,
           VALE_REFE=-1.4031000E7,
           NOM_PARA='SIXX',
           TABLE=TPRESS,
           FILTRE=(_F(NOM_PARA='INST',
                      VALE=1.0,),
                   _F(NOM_PARA='NOEUD',
                      VALE_K='N196',),
                   ),
           )

TEST_TABLE(REFERENCE='ANALYTIQUE',
           PRECISION=0.088999999999999996,
           VALE_CALC=-1.19737234E+07,
           VALE_REFE=-1.3094000E7,
           NOM_PARA='SIXX',
           TABLE=TPRESS,
           FILTRE=(_F(NOM_PARA='INST',
                      VALE=1.0,),
                   _F(NOM_PARA='NOEUD',
                      VALE_K='N195',),
                   ),
           )

TEST_TABLE(REFERENCE='ANALYTIQUE',
           PRECISION=0.042999999999999997,
           VALE_CALC=-1.06929259E+07,
           VALE_REFE=-1.1169000E7,
           NOM_PARA='SIXX',
           TABLE=TPRESS,
           FILTRE=(_F(NOM_PARA='INST',
                      VALE=1.0,),
                   _F(NOM_PARA='NOEUD',
                      VALE_K='N190',),
                   ),
           )

TEST_TABLE(REFERENCE='ANALYTIQUE',
           PRECISION=0.090999999999999998,
           VALE_CALC=-9.63969911E+06,
           VALE_REFE=-1.0593000E7,
           NOM_PARA='SIXX',
           TABLE=TPRESS,
           FILTRE=(_F(NOM_PARA='INST',
                      VALE=1.0,),
                   _F(NOM_PARA='NOEUD',
                      VALE_K='N189',),
                   ),
           )

#
# ADHERENT OU GLISSANT
#

TEST_TABLE(
           VALE_CALC=2.0,
           NOM_PARA='CONT',
           TABLE=TCONT,
           FILTRE=(_F(NOM_PARA='INST',
                      VALE=1.0,),
                   _F(NOM_PARA='NOEUD',
                      VALE_K='N282',),
                   ),
           )

FIN();
