# MODIF  DATE 28/07/2008   AUTEUR LAVERNE J.LAVERNE 
# TITRE INTERFACE EN CONTACT FROTTANT AVEC X-FEM
#            CONFIGURATION MANAGEMENT OF EDF VERSION
# ======================================================================
# COPYRIGHT (C) 1991 - 2008  EDF R&D                  WWW.CODE-ASTER.ORG
# THIS PROGRAM IS FREE SOFTWARE; YOU CAN REDISTRIBUTE IT AND/OR MODIFY  
# IT UNDER THE TERMS OF THE GNU GENERAL PUBLIC LICENSE AS PUBLISHED BY  
# THE FREE SOFTWARE FOUNDATION; EITHER VERSION 2 OF THE LICENSE, OR     
# (AT YOUR OPTION) ANY LATER VERSION.                                                    
#                                                                       
# THIS PROGRAM IS DISTRIBUTED IN THE HOPE THAT IT WILL BE USEFUL, BUT   
# WITHOUT ANY WARRANTY; WITHOUT EVEN THE IMPLIED WARRANTY OF            
# MERCHANTABILITY OR FITNESS FOR A PARTICULAR PURPOSE. SEE THE GNU      
# GENERAL PUBLIC LICENSE FOR MORE DETAILS.                              
#                                                                       
# YOU SHOULD HAVE RECEIVED A COPY OF THE GNU GENERAL PUBLIC LICENSE     
# ALONG WITH THIS PROGRAM; IF NOT, WRITE TO EDF R&D CODE_ASTER,         
#    1 AVENUE DU GENERAL DE GAULLE, 92141 CLAMART CEDEX, FRANCE.        
# ======================================================================
#
#       CAS_TEST SSNV209H: 3D, ELEMENTS QUAD8, METHODE XFEM

DEBUT( CODE=_F(  NOM = 'SSNV209H',NIV_PUB_WEB='INTERNET'),)

#......................................................
#  CALCUL TEST ELEMENTS FINIS XFEM ET CONTACT 3D QUAD8
#  PLAQUE EN CONTACT FROTTANT SUR BATI RIGIDE
#  AVEC XFEM
#......................................................
#
# Cas 3D
# La fissure passe au milieu des mailles, le decoupage
# est active.
#
#----------------------------------------------
#                MAILLAGE
#----------------------------------------------

PRE_GIBI();

MAILLAG1=LIRE_MAILLAGE(VERI_MAIL=_F(VERIF='OUI'));

MAILLAG1=DEFI_GROUP(reuse =MAILLAG1,
                    MAILLAGE=MAILLAG1,
                    CREA_GROUP_NO= (_F(GROUP_MA='VOLU',),
                                    _F(GROUP_MA='LIG3',),
                                    _F(GROUP_MA='SUR1',
                                       NOM='NSUR1',),
                                    _F(NOM='P1P',
                                       OPTION='ENV_SPHERE',
                                       POINT=(0.0,0.04,0.001,),
                                       RAYON=1.E-4,
                                       PRECISION=1.E-4,),
                                    _F(NOM='P2P',
                                       OPTION='ENV_SPHERE',
                                       POINT=(0.08,0.04,0.001,),
                                       RAYON=1.E-4,
                                       PRECISION=1.E-4,),),
                    CREA_GROUP_MA= (_F(OPTION='CYLINDRE',
                                       NOM='PL',
                                       GROUP_NO_CENTRE='P4',
                                       VECT_NORMALE= (1.,0.,0.),
                                       RAYON=0.0399,
                                       ),
                                    _F(NOM='PLAQ',
                                       DIFFE=('PL','SURF','LIG1','LIG2','LIG3','LIG4'),),
                                    _F(OPTION='CYLINDRE',
                                       NOM='BA',
                                       GROUP_NO_CENTRE='P1',
                                       VECT_NORMALE= (1.,0.,0.),
                                       RAYON=0.00999,
                                       ),
                                    _F(NOM='BAT',
                                       DIFFE=('BA','SURF','LIG1','LIG2','LIG3','LIG4'),),
                                    ),
                    INFO=1);

MAILLAG2=CREA_MAILLAGE(MAILLAGE=MAILLAG1,
                       LINE_QUAD=_F(GROUP_MA=('VOLU',),),);

MAILLAG2=DEFI_GROUP(reuse =MAILLAG2,
                    MAILLAGE=MAILLAG2,
                    CREA_GROUP_NO=(_F(NOM='NFISSU',
                                      OPTION='PLAN',
                                      POINT=(0.,0.,0.),
                                      VECT_NORMALE=(0.,1.,0.),
                                      PRECISION=1.2E-3),
                                   ),
                    INFO=1);

MAILLAG2=MODI_MAILLAGE(reuse=MAILLAG2,
                       MAILLAGE=MAILLAG2,
                       ORIE_PEAU_3D=(_F(GROUP_MA = 'SUR2',),
                                     _F(GROUP_MA = 'SUR3',),
                                     _F(GROUP_MA = 'SUR4',),),);

#----------------------------------------------
#                   MODELE ET FISSURE
#----------------------------------------------

MODELEIN=AFFE_MODELE(MAILLAGE=MAILLAG2,
                     AFFE=(_F(GROUP_MA=('SUR3',),
                              PHENOMENE='MECANIQUE',
                              MODELISATION='3D',),
                           _F(GROUP_MA=('SUR1',),
                              PHENOMENE='MECANIQUE',
                              MODELISATION='3D',),
                           _F(GROUP_MA=('VOLU',),
                              PHENOMENE='MECANIQUE',
                              MODELISATION='3D_XFEM_CONT',),
                           _F(GROUP_MA=('SUR2',),
                              PHENOMENE='MECANIQUE',
                              MODELISATION='3D',),
                           _F(GROUP_MA=('SUR4',),
                              PHENOMENE='MECANIQUE',
                              MODELISATION='3D',),),
                              INFO=1);

# FORME ANALYTIQUE POUR LA FISSURE

LN=FORMULE(NOM_PARA=('X','Y','Z'),VALE='Y');
LT=FORMULE(NOM_PARA=('X','Y','Z'),VALE='X-10.');

FISS=DEFI_FISS_XFEM(MODELE=MODELEIN,
                    DEFI_FISS=_F(FONC_LT=LT,FONC_LN=LN,),
                    GROUP_MA_ENRI=('VOLU'),
                    ORIE_FOND=_F(PFON_INI=(0.,0.,0.),
                                 VECT_ORIE=(0.,1.,0.),
                                 POINT_ORIG=(0.04,0.,0.02),),
                    INFO=1,
                    );

MODELEK=MODI_MODELE_XFEM(MODELE_IN=MODELEIN,
                         FISSURE=FISS,
                         CONTACT='OUI',
                         INFO=1,
                         );

#----------------------------------------------
#                   MATERIAU
#----------------------------------------------

E=1.3E11
nu=0.2
rho=7800.

CHABNO=CREA_CHAMP(TYPE_CHAM='NOEU_NEUT_R',
                  OPERATION='EXTR',
                  FISSURE=FISS,
                  NOM_CHAM='LNNO');

NU_F=DEFI_FONCTION(NOM_PARA='NEUT1',
                   VALE=(-1.0,0.0,-1.E-9,0.0,1.E-9,nu,1.0,nu));

E_F=DEFI_FONCTION(NOM_PARA='NEUT1',
                  VALE=(-1.0,1.E16,-1.E-9,1.E16,1.E-9,E,1.0,E));

MATVAR=DEFI_MATERIAU(ELAS_FO=_F(E=E_F,NU=NU_F,RHO=rho));

CHAMPMA1=AFFE_MATERIAU(MAILLAGE=MAILLAG2,
                       MODELE=MODELEK,
                       AFFE=(_F(GROUP_MA=('PLAQ'),
                                MATER=MATVAR,),
                             _F(GROUP_MA=('BAT'),
                                MATER=MATVAR,),),
                       AFFE_VARC=_F(NOM_VARC='NEUT1',CHAMP_GD=CHABNO),
                       );

#----------------------------------------------
#                   CHARGEMENTS
#----------------------------------------------

CTXFEM=AFFE_CHAR_MECA(MODELE=MODELEK,
                      CONTACT=_F(FISS_MAIT      = FISS,
                                 METHODE        = 'XFEM',
                                 CONTACT_INIT   = 'OUI',
                                 FROTTEMENT     = 'COULOMB',
                                 COULOMB        = 1.,
                                 ITER_FROT_MAXI = 10,
                                 INTEGRATION    = 'NOEUD',
                                 ALGO_LAGR      = 'VERSION2',
                                 COEF_REGU_CONT = 120.,
                                 ITER_CONT_MAXI = 5.,
                                 COEF_ECHELLE   = 1.,
                                 COEF_REGU_FROT = 100.,
                                 ),
                      INFO=1,
                      );

CHXFEM=AFFE_CHAR_MECA(MODELE=MODELEK,
                      LIAISON_XFEM='OUI',
                      CONTACT_XFEM=CTXFEM,);

CHCINE=AFFE_CHAR_CINE(MODELE=MODELEK,
#                     ENCASTREMENT DU BAS
                      MECA_IMPO=(_F(GROUP_NO='NSUR1',
                                    DX=0.,
                                    DY=0.,
                                    DZ=0.,),
#                     BLOCAGE DZ
#                                 _F(GROUP_NO=('P1','P2','P1P','P2P',),
#                                    DZ=0.,),
                                 _F(GROUP_NO='LIG3',
                                    DZ=0.,),
                                 ),);

CHMECA=AFFE_CHAR_MECA(MODELE=MODELEK,
#                     FORCE IMPOSEE EN A
                      PRES_REP=(_F(GROUP_MA = 'SUR3',
                                   PRES = 5.E07,),),);

def pr(y) :
   if y  < 0.0:  return 0.E07
   if y  > 0.0:  return 15.E7
   if y == 0.0:  return 0.

FCTPRES = FORMULE(VALE='pr(Y)',
                  NOM_PARA=('X','Y'),);

CHAF=AFFE_CHAR_MECA_F(MODELE=MODELEK,
                      PRES_REP=_F(GROUP_MA = ('SUR2','SUR4',),
                                  PRES=FCTPRES,),);

#----------------------------------------------
#                   RESOLUTION
#----------------------------------------------

RAMPE=DEFI_FONCTION(NOM_PARA='INST',
                    PROL_GAUCHE='LINEAIRE',
                    PROL_DROITE='LINEAIRE',
                    VALE=(0.0,0.0,1.0,1.0,),)

L_INS1=DEFI_LIST_REEL(DEBUT=0.0,INTERVALLE=_F(JUSQU_A=1.0,NOMBRE=1,),);

UTOT1=STAT_NON_LINE(MODELE=MODELEK,
                    CHAM_MATER=CHAMPMA1,
                    EXCIT=(_F(CHARGE=CHXFEM,),
                           _F(CHARGE=CTXFEM,),
                           _F(CHARGE=CHCINE,),
                           _F(CHARGE=CHMECA,
                              FONC_MULT=RAMPE),
                           _F(CHARGE=CHAF,
                              FONC_MULT=RAMPE),
                           ),
                    COMP_ELAS=_F(RELATION='ELAS',
                                 GROUP_MA='VOLU',),
                    INCREMENT=_F(LIST_INST=L_INS1,
                                 INST_FIN=1.0,),
                    CONVERGENCE=_F(ARRET='OUI',
                                   ITER_GLOB_MAXI=50,
                                   RESI_GLOB_RELA=1.E-6),
                    SOLVEUR=_F(METHODE='MUMPS',
                               PCENT_PIVOT=100,
                               RESI_RELA=-1.),
                    NEWTON=_F(REAC_ITER=1,),
                    ARCHIVAGE=_F(CHAM_EXCLU='VARI_ELGA',),
                    );

#-----------------------------------------------------------
#             POST-TRAITEMENT POUR LA VISUALISATION
#-----------------------------------------------------------

MA_XFEM=POST_MAIL_XFEM(MAILLAGE_SAIN = MAILLAG1,
                       MODELE        = MODELEK,)

MA_XFEM=DEFI_GROUP(reuse=MA_XFEM,
                   MAILLAGE=MA_XFEM,
                   CREA_GROUP_NO=(_F(OPTION='ENV_SPHERE',
                                     NOM='PPA',
                                     POINT=(0.,0.,0.),
                                     RAYON=0.000001,
                                     PRECISION=0.00001,),
                                  _F(OPTION='ENV_SPHERE',
                                     NOM='PPC',
                                     POINT=(0.005,0.,0.),
                                     RAYON=0.000001,
                                     PRECISION=0.00001,),
                                  _F(OPTION='ENV_SPHERE',
                                     NOM='PPD',
                                     POINT=(0.0075,0.,0.),
                                     RAYON=0.000001,
                                     PRECISION=0.00001,),
                                  _F(NOM='NFISSU',
                                     OPTION='PLAN',
                                     POINT=(0.,0.,0.),
                                     VECT_NORMALE=(0.,1.,0.),
                                     PRECISION=1.E-6,)),
                   INFO=1);

MOD_VISU=AFFE_MODELE(MAILLAGE=MA_XFEM,
                     AFFE=_F(TOUT='OUI',
                             PHENOMENE='MECANIQUE',
                             MODELISATION='3D',),)

RES_XFEM=POST_CHAM_XFEM(MAILLAGE_SAIN = MAILLAG1,
                        MAILLAGE_FISS = MA_XFEM,
                        MODELE        = MODELEK,
                        MODELE_VISU   = MOD_VISU,
                        RESULTAT      = UTOT1,
                        NOM_CHAM      = ('DEPL','SIEF_ELGA'),)

#----------------------------------------------
#                   POST RELEVE
#----------------------------------------------

DEP_NFI=POST_RELEVE_T(ACTION=_F(INTITULE='DEPLE',
                                GROUP_NO=('NFISSU',),
                                RESULTAT=RES_XFEM,
                                NOM_CHAM='DEPL',
                                INST=1.0,
                                TOUT_CMP='OUI',
                                OPERATION='EXTRACTION',),);

DEP_NFI = CALC_TABLE(reuse = DEP_NFI,
                     TABLE = DEP_NFI,
                     ACTION = (_F(OPERATION = 'FILTRE',
                                  NOM_PARA  = 'NOEUD',
                                  CRIT_COMP = 'REGEXP',
                                  VALE_K    = 'N[^M]',),),);

DEP_NFI = CALC_TABLE(reuse = DEP_NFI,
                     TABLE = DEP_NFI,
                     ACTION=_F(OPERATION='TRI',
                               NOM_PARA='COOR_X',
                               ORDRE='CROISSANT',),);

IMPR_TABLE(TABLE=DEP_NFI,);

DEP_PPA=POST_RELEVE_T(ACTION=_F(INTITULE='DEPLE',
                                GROUP_NO=('PPA',),
                                RESULTAT=RES_XFEM,
                                NOM_CHAM='DEPL',
                                INST=1.0,
                                TOUT_CMP='OUI',
                                OPERATION='EXTRACTION',),);
DEP_PPA = CALC_TABLE(reuse = DEP_PPA,
                     TABLE = DEP_PPA,
                     ACTION = (_F(OPERATION = 'FILTRE',
                                  NOM_PARA  = 'NOEUD',
                                  CRIT_COMP = 'REGEXP',
                                  VALE_K    = 'N[^M]',),),);

DEP_PPC=POST_RELEVE_T(ACTION=_F(INTITULE='DEPLE',
                                GROUP_NO=('PPC',),
                                RESULTAT=RES_XFEM,
                                NOM_CHAM='DEPL',
                                INST=1.0,
                                TOUT_CMP='OUI',
                                OPERATION='EXTRACTION',),);
DEP_PPC = CALC_TABLE(reuse = DEP_PPC,
                     TABLE = DEP_PPC,
                     ACTION = (_F(OPERATION = 'FILTRE',
                                  NOM_PARA  = 'NOEUD',
                                  CRIT_COMP = 'REGEXP',
                                  VALE_K    = 'N[^M]',),),);

DEP_PPD=POST_RELEVE_T(ACTION=_F(INTITULE='DEPLE',
                                GROUP_NO=('PPD',),
                                RESULTAT=RES_XFEM,
                                NOM_CHAM='DEPL',
                                INST=1.0,
                                TOUT_CMP='OUI',
                                OPERATION='EXTRACTION',),);
DEP_PPD = CALC_TABLE(reuse = DEP_PPD,
                      TABLE = DEP_PPD,
                     ACTION = (_F(OPERATION = 'FILTRE',
                                  NOM_PARA  = 'NOEUD',
                                  CRIT_COMP = 'REGEXP',
                                  VALE_K    = 'N[^M]',),),);

#----------------------------------------------
#                   TEST TABLE
#----------------------------------------------

preci=1.0e-2;

TEST_TABLE(TABLE=DEP_PPA,
           NOM_PARA='DX',
           TYPE_TEST='MAX',
           VALE=3.0697055365649E-05,
           CRITERE='RELATIF',
           PRECISION=preci,
           REFERENCE='AUTRE_ASTER',);

TEST_TABLE(TABLE=DEP_PPA,
           NOM_PARA='DX',
           TYPE_TEST='MIN',
           VALE=3.0697055365649E-05,
           CRITERE='RELATIF',
           PRECISION=preci,
           REFERENCE='AUTRE_ASTER',);

TEST_TABLE(TABLE=DEP_PPC,
           NOM_PARA='DX',
           TYPE_TEST='MAX',
           VALE=2.4735987440628E-05,
           CRITERE='RELATIF',
           PRECISION=preci,
           REFERENCE='AUTRE_ASTER',);

TEST_TABLE(TABLE=DEP_PPC,
           NOM_PARA='DX',
           TYPE_TEST='MIN',
           VALE=2.4735987440628E-05,
           CRITERE='RELATIF',
           PRECISION=preci,
           REFERENCE='AUTRE_ASTER',);

TEST_TABLE(TABLE=DEP_PPD,
           NOM_PARA='DX',
           TYPE_TEST='MAX',
           VALE=2.1587163322359E-05,
           CRITERE='RELATIF',
           PRECISION=preci,
           REFERENCE='AUTRE_ASTER',);

TEST_TABLE(TABLE=DEP_PPD,
           NOM_PARA='DX',
           TYPE_TEST='MIN',
           VALE=2.1587163322359E-05,
           CRITERE='RELATIF',
           PRECISION=preci,
           REFERENCE='AUTRE_ASTER',);

FIN();
