# MODIF  DATE 13/01/2011   AUTEUR PELLET J.PELLET 
# TITRE  ESSAI DE TRACTION-CISAILLEMENT 3D (VISC_TAHERI)
#            CONFIGURATION MANAGEMENT OF EDF VERSION
# ======================================================================
# COPYRIGHT (C) 1991 - 2011  EDF R&D                  WWW.CODE-ASTER.ORG
# THIS PROGRAM IS FREE SOFTWARE; YOU CAN REDISTRIBUTE IT AND/OR MODIFY
# IT UNDER THE TERMS OF THE GNU GENERAL PUBLIC LICENSE AS PUBLISHED BY
# THE FREE SOFTWARE FOUNDATION; EITHER VERSION 2 OF THE LICENSE, OR
# (AT YOUR OPTION) ANY LATER VERSION.
#
# THIS PROGRAM IS DISTRIBUTED IN THE HOPE THAT IT WILL BE USEFUL, BUT
# WITHOUT ANY WARRANTY; WITHOUT EVEN THE IMPLIED WARRANTY OF
# MERCHANTABILITY OR FITNESS FOR A PARTICULAR PURPOSE. SEE THE GNU
# GENERAL PUBLIC LICENSE FOR MORE DETAILS.
#
# YOU SHOULD HAVE RECEIVED A COPY OF THE GNU GENERAL PUBLIC LICENSE
# ALONG WITH THIS PROGRAM; IF NOT, WRITE TO EDF R&D CODE_ASTER,
#    1 AVENUE DU GENERAL DE GAULLE, 92141 CLAMART CEDEX, FRANCE.
# ======================================================================
#----------------------------------------------------------------------
#    CAS TEST VPCS PLAQUE CARREE EN TRACTION CISAILLEMENT PROPORTIONNEL
#                   ESSAI AVEC CHARGE EN RAMPE A 88 N (0.17#)
#----------------------------------------------------------------------
#        UNITES : NEWTON , MILLIMETRE , SECONDE (N,MM,S,->MPA)
#----------------------------------------------------------------------
#
#               Y       A
#               I<------------->                     A = 1 MM
#                     FACE1XZ                                2
#                                                    S = 1 MM
#               V   NO1        A   NO2
#              <O>-------------O>
#              /I             /I                F(T)
#       NO5  V/ I       NO6 A/ I                 A
#           <O>-+-----------O> I              22NI____
#            I  I           I  I                 I   /I
#  FACEYZ    I  I           I  I      FACE1YZ    I  / I
#            I  I           I  I                 I /  I
#            I  V   NO3     I  A  NO4            I/   I
#            I<<O-----------I-<O      - X        +----+----> T
#            I /            I /                       1S
#       NO7  V/        NO8  A/
#          <<O-------------<O
#
#          /       FACEXZ
#         Z               SEUIL ELASTIQUE : F = 64.8    MPA (=RO(1-M))
#                          EN TRACTION      U = 3.24E-4 MM
#
#
#----------------------------------------------------------------------
#
DEBUT(CODE=_F(NOM='SSNV102C', NIV_PUB_WEB='INTERNET'), DEBUG=_F(SDVERI='OUI'))

CUBE=LIRE_MAILLAGE(    )

TROISD=AFFE_MODELE(            MAILLAGE=CUBE,
                                    AFFE=_F(   PHENOMENE = 'MECANIQUE',
                                            MODELISATION = '3D',
                                            TOUT = 'OUI'))

R_0_T=DEFI_FONCTION(      NOM_PARA='TEMP',
                            PROL_DROITE='CONSTANT',
                           PROL_GAUCHE='CONSTANT',
                          VALE=( 0.,     72.,
                                 1000.,  72.,      ))

ALPHA_T=DEFI_FONCTION(      NOM_PARA='TEMP',
                            PROL_DROITE='CONSTANT',
                           PROL_GAUCHE='CONSTANT',
                          VALE=( 0.,     .3,
                                 1000.,  .3,       ))

M_T=DEFI_FONCTION(      NOM_PARA='TEMP',
                            PROL_DROITE='CONSTANT',
                           PROL_GAUCHE='CONSTANT',
                          VALE=( 0.,     .1,
                                 1000.,  .1,       ))

A_T=DEFI_FONCTION(      NOM_PARA='TEMP',
                            PROL_DROITE='CONSTANT',
                           PROL_GAUCHE='CONSTANT',
                          VALE=( 0.,     312.,
                                 1000.,  312.,       ))

B_T=DEFI_FONCTION(      NOM_PARA='TEMP',
                            PROL_DROITE='CONSTANT',
                           PROL_GAUCHE='CONSTANT',
                          VALE=( 0.,     30.,
                                 1000.,  30.,       ))

C1_T=DEFI_FONCTION(      NOM_PARA='TEMP',
                            PROL_DROITE='CONSTANT',
                           PROL_GAUCHE='CONSTANT',
                          VALE=( 0.,     -.012,
                                 1000.,  -.012,      ))

C_INF_T=DEFI_FONCTION(      NOM_PARA='TEMP',
                            PROL_DROITE='CONSTANT',
                           PROL_GAUCHE='CONSTANT',
                          VALE=( 0.,     .065,
                                 1000.,  .065,       ))

S_T=DEFI_FONCTION(      NOM_PARA='TEMP',
                            PROL_DROITE='CONSTANT',
                           PROL_GAUCHE='CONSTANT',
                          VALE=( 0.,     450.,
                                 1000.,  450.,      ))

ACIER=DEFI_MATERIAU(            ELAS=_F(   E = 200000.,
                                            NU = .3,
                                            ALPHA = 0.),

                               TAHERI_FO=_F(   R_0 = R_0_T,
                                            ALPHA = ALPHA_T,
                                            M = M_T,
                                            A = A_T,
                                            B = B_T,
                                            C1 = C1_T,
                                            C_INF = C_INF_T,
                                            S = S_T))

CHT0=CREA_CHAMP(OPERATION='AFFE', TYPE_CHAM='CART_TEMP_R', MAILLAGE=CUBE,
           AFFE=_F(  TOUT='OUI',   NOM_CMP = 'TEMP',   VALE = 0.E0,  ) )
MAT=AFFE_MATERIAU(  MAILLAGE=CUBE,
                    AFFE=_F(  MAILLE = 'MA1', MATER = ACIER),
                    AFFE_VARC= _F( TOUT = 'OUI', NOM_VARC = 'TEMP', CHAMP_GD=CHT0,VALE_REF=20.),
                                           )

LINST=DEFI_LIST_REEL(              DEBUT=0.,INTERVALLE=(
                              _F( JUSQU_A = .35, NOMBRE = 1),
                                         _F( JUSQU_A = 1.,  NOMBRE = 5))
                                         )

TR_CS=AFFE_CHAR_MECA(
                    MODELE=TROISD,DDL_IMPO=(
                _F(  NOEUD = 'NO4', DX = 0.,DY = 0.),
                         _F(  NOEUD = 'NO8', DX = 0.,DY = 0.,DZ = 0.),
                         _F(  NOEUD = 'NO2', DX = 0.),
                         _F(  NOEUD = 'NO6', DX = 0.)),FORCE_NODALE=(
            _F(  NOEUD = ('NO1', 'NO5', 'NO3', 'NO7',),       FY = -1.),
                         _F(  NOEUD = ('NO3', 'NO7',),  FX = -2.),
                         _F(  NOEUD = ('NO2', 'NO6',),  FY = 1.))
                                                                     )

COEF=DEFI_FONCTION(
                              NOM_PARA='INST',
                            PROL_DROITE='LINEAIRE',
                           PROL_GAUCHE='LINEAIRE',
                                  VALE=( 0.,  0.,
                                         1.,  22.,
                                       ))

SOLNL=STAT_NON_LINE(
               TITRE='TEST TRACTION_CISAILLEMENT MODELE SAID',
                            MODELE=TROISD,
                        CHAM_MATER=MAT,
                             EXCIT=_F(
                CHARGE = TR_CS,
                FONC_MULT = COEF,
                TYPE_CHARGE = 'FIXE_CSTE'),
                         COMP_INCR=_F(
                RELATION = 'VISC_TAHERI',
                DEFORMATION = 'PETIT',
                ITER_INTE_MAXI = 20,
                ITER_INTE_PAS = 10,
                TOUT = 'OUI'),
                         INCREMENT=_F(
                LIST_INST = LINST),
                            NEWTON=_F(
                MATRICE = 'TANGENTE',
                REAC_INCR = 1,
                REAC_ITER = 10),
                       CONVERGENCE=_F(
                ITER_GLOB_MAXI = 20,
                RESI_GLOB_RELA = 1.E-6),
                     RECH_LINEAIRE=_F(
                ITER_LINE_MAXI = 4,
                RHO_MAX=200.,
                RESI_LINE_RELA = 1.E-3)
              )

SOLNL=CALC_ELEM( reuse=SOLNL,
                            OPTION=(
                  'SIEF_ELNO',  'VARI_ELNO_ELGA',),
                          RESULTAT=SOLNL,
              )

#

TEST_RESU(RESU=(
           _F(  RESULTAT = SOLNL,          NUME_ORDRE = 6,
             PARA = 'INST',             VALE = 1.00000E+00),
           _F(  RESULTAT = SOLNL,          NUME_ORDRE = 6,
             PARA = 'ITER_GLOB',        VALE_I = 12,
             CRITERE = 'ABSOLU',         PRECISION = 8.),
           )
           )

SOLNL=CALC_ELEM( reuse=SOLNL,
                                    OPTION='EPSI_ELNO_DEPL',
                                  RESULTAT=SOLNL )

SOLNL=CALC_ELEM( reuse=SOLNL,
                                    OPTION='EPSP_ELGA',
                                  RESULTAT=SOLNL )

SOLNL=CALC_ELEM( reuse=SOLNL,
                                    OPTION='EPSP_ELNO',
                                  RESULTAT=SOLNL )

TEST_RESU(RESU=(

  _F(  RESULTAT = SOLNL,  NOM_CHAM = 'EPSI_ELNO_DEPL',  NUME_ORDRE = 6,
                 MAILLE = 'MA1',  NOEUD = 'NO1',  NOM_CMP = 'EPXX',  VALE = 1.721E-2),

  _F(  RESULTAT = SOLNL,  NOM_CHAM = 'EPSI_ELNO_DEPL',  NUME_ORDRE = 6,
                 MAILLE = 'MA1',  NOEUD = 'NO1',  NOM_CMP = 'EPXY',  VALE = 2.573E-2),

  _F(  RESULTAT = SOLNL,  NOM_CHAM = 'EPSP_ELGA',       NUME_ORDRE = 6,
                 MAILLE = 'MA1',  POINT = 1,    NOM_CMP = 'EPXX',  VALE = 1.678E-2),

  _F(  RESULTAT = SOLNL,  NOM_CHAM = 'EPSP_ELGA',       NUME_ORDRE = 6,
                 MAILLE = 'MA1',  POINT = 1,    NOM_CMP = 'EPXY',  VALE = 2.515E-2),

  _F(  RESULTAT = SOLNL,  NOM_CHAM = 'EPSP_ELNO',       NUME_ORDRE = 6,
                 MAILLE = 'MA1',  NOEUD = 'NO1',  NOM_CMP = 'EPXX',  VALE = 1.678E-2),

  _F(  RESULTAT = SOLNL,  NOM_CHAM = 'EPSP_ELNO',       NUME_ORDRE = 6,
                 MAILLE = 'MA1',  NOEUD = 'NO1',  NOM_CMP = 'EPXY',  VALE = 2.515E-2),

  _F(  RESULTAT = SOLNL,  NOM_CHAM = 'VARI_ELNO_ELGA',  NUME_ORDRE = 6,
                 MAILLE = 'MA1',  NOEUD = 'NO1',  NOM_CMP = 'V1', VALE = 3.356E-2),

  _F(  RESULTAT = SOLNL,  NOM_CHAM = 'VARI_ELNO_ELGA',  NUME_ORDRE = 6,
                 MAILLE = 'MA1',  NOEUD = 'NO1',  NOM_CMP = 'V2', VALE = 1.760E+2))
         )

#
#----------------------------------------------------------------------
# --- VALIDATION IMPR_RESU FORMAT ENSIGHT
#
IMPR_RESU ( MODELE=TROISD,
            FORMAT='ENSIGHT',
            RESU=_F( MAILLAGE=CUBE, RESULTAT = SOLNL,
                     NOM_CHAM = 'DEPL', INST= 3.500E-01  )   ) ;
#
TEST_FICHIER(FICHIER='./RESU_ENSIGHT/CUBE.geo',
            NB_VALE=45,
            VALE=1.03e+02,
            # date a ignorer : ...-2004 15:00:10
            EXPR_IGNORE='\-[0-9]{4} [0-9]{2}:[0-9]{2}:[0-9]{2}',
            VALE_K='355603a7953e585d5d3bdec8eb0aad84',
            REFERENCE='NON_REGRESSION',
            )

TEST_FICHIER(FICHIER='./RESU_ENSIGHT/SOLNL.DEPL.1',
             NB_VALE=25,
             VALE=3.477824e-01,
             VALE_K='8a90687100893d52a9ca7bf2dd547a60',
             REFERENCE='NON_REGRESSION',
             )

TEST_FICHIER(FICHIER='./RESU_ENSIGHT/SOLNL.DEPL.1.DX',
             NB_VALE=9,
             VALE=3.49384e-01,
             VALE_K='363ff50266ae69778261bad4aa7e8df5',
             REFERENCE='NON_REGRESSION',
             )

TEST_FICHIER(FICHIER='./RESU_ENSIGHT/SOLNL.DEPL.1.DY',
             NB_VALE=9,
             VALE=3.482136e-01,
             VALE_K='dd88b171982ad5db3b13f9fdcab74b1b',
             REFERENCE='NON_REGRESSION',
             )

TEST_FICHIER(FICHIER='./RESU_ENSIGHT/SOLNL.DEPL.1.DZ',
             NB_VALE=9,
             VALE=3.501848e-01,
             VALE_K='e237cf1c1155db14dc48fdefa56055e5',
             REFERENCE='NON_REGRESSION',
             )

TEST_FICHIER(FICHIER='./RESU_ENSIGHT/SOLNL.res1',
             NB_VALE=9,
             VALE=9.35,
             VALE_K='f631e346c9ea62dc208f6be2ec04dfa9',
             REFERENCE='NON_REGRESSION',
             )

#
FIN()
#
