# MODIF  DATE 10/10/2012   AUTEUR COURTOIS M.COURTOIS 
# TITRE HEMISPHERE TROUEEE DOUBLEMENT PINCEE
# ssnv141a.para = tps_job 310 mem_job 512Mo ncpus 1 liste_test S
#            CONFIGURATION MANAGEMENT OF EDF VERSION
# ======================================================================
# COPYRIGHT (C) 1991 - 2012  EDF R&D                  WWW.CODE-ASTER.ORG
# THIS PROGRAM IS FREE SOFTWARE; YOU CAN REDISTRIBUTE IT AND/OR MODIFY
# IT UNDER THE TERMS OF THE GNU GENERAL PUBLIC LICENSE AS PUBLISHED BY
# THE FREE SOFTWARE FOUNDATION; EITHER VERSION 2 OF THE LICENSE, OR
# (AT YOUR OPTION) ANY LATER VERSION.
#
# THIS PROGRAM IS DISTRIBUTED IN THE HOPE THAT IT WILL BE USEFUL, BUT
# WITHOUT ANY WARRANTY; WITHOUT EVEN THE IMPLIED WARRANTY OF
# MERCHANTABILITY OR FITNESS FOR A PARTICULAR PURPOSE. SEE THE GNU
# GENERAL PUBLIC LICENSE FOR MORE DETAILS.
#
# YOU SHOULD HAVE RECEIVED A COPY OF THE GNU GENERAL PUBLIC LICENSE
# ALONG WITH THIS PROGRAM; IF NOT, WRITE TO EDF R&D CODE_ASTER,
#    1 AVENUE DU GENERAL DE GAULLE, 92141 CLAMART CEDEX, FRANCE.
# ======================================================================


DEBUT(CODE=_F(NOM='SSNV141A',NIV_PUB_WEB='INTERNET'),DEBUG=_F(SDVERI='OUI'))

# HEMISPHERE DOUBLEMENT PINCE
# MAILLAGE 1/4 DE L'HEMISPHERE
#
# MODELISATION MEC3QU9H: 100 MAILLES QUAD9
#
#

MATERI_1=DEFI_MATERIAU( ELAS=_F(  E = 6.825E+7,     NU = 0.3) )

#

MAILLA_1=LIRE_MAILLAGE(FORMAT='MED',   )

MAILLA_1=DEFI_GROUP( reuse=MAILLA_1,   MAILLAGE=MAILLA_1,
                           CREA_GROUP_MA=_F(  NOM = 'TOUT',  TOUT = 'OUI') )

#

CH_MAT_1=AFFE_MATERIAU(  MAILLAGE=MAILLA_1,
                            AFFE=_F(  TOUT = 'OUI',   MATER = MATERI_1) )

#

MODELE_1=AFFE_MODELE(  MAILLAGE=MAILLA_1, VERIF='MAILLE',
                     AFFE=_F(  TOUT = 'OUI', MODELISATION = 'COQUE_3D',
                            PHENOMENE = 'MECANIQUE') )

#
#
#

CHARGE_1=AFFE_CHAR_MECA(   MODELE=MODELE_1,DDL_IMPO=(
                  _F( GROUP_NO = 'G_41',  DY = 0.,
                                              DRX = 0., DRZ = 0.),
                           _F( GROUP_NO = 'G_23',  DX = 0.,
                                              DRY = 0., DRZ = 0.),
                           _F( GROUP_NO = 'G_10',  DZ = 0.)),FORCE_NODALE=(
                  _F(  GROUP_NO = 'G_1',  FX = 1.E0),
                  _F(  GROUP_NO = 'G_2',  FY = -1.E0))
                           )

#

CARAC_1=AFFE_CARA_ELEM(    MODELE=MODELE_1,
                                COQUE=_F(  GROUP_MA = 'TOUT',
                                        EPAIS = 0.040,
                                        COEF_RIGI_DRZ = 1.E-3)
                           )

#
#

L_INST=DEFI_LIST_REEL(
                            DEBUT=0.0,
                       INTERVALLE=_F(  JUSQU_A = 100., NOMBRE = 10)

                                       )

#

D_FONC=DEFI_FONCTION(    NOM_PARA='INST',
                                VALE=(   0.,   0.,
                                       500., 500.,
                                     )
                         )

#
#

NONLIN=STAT_NON_LINE(
                            MODELE=MODELE_1,
                        CHAM_MATER=CH_MAT_1,
                         CARA_ELEM=CARAC_1,
                             EXCIT=_F(
                CHARGE = CHARGE_1,
                FONC_MULT = D_FONC),
                         COMP_ELAS=_F(
                RELATION = 'ELAS',
                DEFORMATION = 'GROT_GDEP'),
                         INCREMENT=_F(
                LIST_INST = L_INST),
                       CONVERGENCE=_F(
                ITER_GLOB_MAXI = 50,
                RESI_GLOB_RELA = 1.E-6),
                            NEWTON=_F(
                MATRICE = 'TANGENTE',
                REAC_ITER = 1)
              )

#
#
################## DEPLACEMENT X POSITIF


TEST_RESU(RESU=_F(GROUP_NO='G_1',
                  INST=20.0,
                  RESULTAT=NONLIN,
                  NOM_CHAM='DEPL',
                  NOM_CMP='DX',
                  VALE_CALC=1.486157037,
                  VALE_REFE=1.4845999999999999,
                  REFERENCE='NON_DEFINI',
                  CRITERE='RELATIF',
                  PRECISION=2.E-3,),
          )

TEST_RESU(RESU=_F(GROUP_NO='G_1',
                  INST=50.0,
                  RESULTAT=NONLIN,
                  NOM_CHAM='DEPL',
                  NOM_CMP='DX',
                  VALE_CALC=2.571738128,
                  VALE_REFE=2.5785,
                  REFERENCE='NON_DEFINI',
                  CRITERE='RELATIF',
                  PRECISION=1.E-2,),
          )

TEST_RESU(RESU=_F(GROUP_NO='G_1',
                  INST=100.0,
                  RESULTAT=NONLIN,
                  NOM_CHAM='DEPL',
                  NOM_CMP='DX',
                  VALE_CALC=3.362266263,
                  VALE_REFE=3.3902999999999999,
                  REFERENCE='NON_DEFINI',
                  CRITERE='RELATIF',
                  PRECISION=1.E-2,),
          )

#
###########################   DEPLACEMENT Y NEGATIF


TEST_RESU(RESU=_F(GROUP_NO='G_2',
                  INST=20.0,
                  RESULTAT=NONLIN,
                  NOM_CHAM='DEPL',
                  NOM_CMP='DY',
                  VALE_CALC=-1.816833270,
                  VALE_REFE=-1.7997000000000001,
                  REFERENCE='NON_DEFINI',
                  CRITERE='RELATIF',
                  PRECISION=1.E-2,),
          )

TEST_RESU(RESU=_F(GROUP_NO='G_2',
                  INST=50.0,
                  RESULTAT=NONLIN,
                  NOM_CHAM='DEPL',
                  NOM_CMP='DY',
                  VALE_CALC=-3.779000244,
                  VALE_REFE=-3.7585999999999999,
                  REFERENCE='NON_DEFINI',
                  CRITERE='RELATIF',
                  PRECISION=1.E-2,),
          )

TEST_RESU(RESU=_F(GROUP_NO='G_2',
                  INST=100.0,
                  RESULTAT=NONLIN,
                  NOM_CHAM='DEPL',
                  NOM_CMP='DY',
                  VALE_CALC=-5.784680391,
                  VALE_REFE=-5.8021000000000003,
                  REFERENCE='NON_DEFINI',
                  CRITERE='RELATIF',
                  PRECISION=1.E-2,),
          )

#
FIN( )
#
