# MODIF  DATE 07/06/2002   AUTEUR DURAND C.DURAND 
# TITRE ETUDE  : ESSAI TRIAXIAL NON DRAINE
#            CONFIGURATION MANAGEMENT OF EDF VERSION
# ======================================================================
# COPYRIGHT (C) 1991 - 2001  EDF R&D                  WWW.CODE-ASTER.ORG
# THIS PROGRAM IS FREE SOFTWARE; YOU CAN REDISTRIBUTE IT AND/OR MODIFY
# IT UNDER THE TERMS OF THE GNU GENERAL PUBLIC LICENSE AS PUBLISHED BY
# THE FREE SOFTWARE FOUNDATION; EITHER VERSION 2 OF THE LICENSE, OR   
# (AT YOUR OPTION) ANY LATER VERSION.                                 
#
# THIS PROGRAM IS DISTRIBUTED IN THE HOPE THAT IT WILL BE USEFUL, BUT 
# WITHOUT ANY WARRANTY; WITHOUT EVEN THE IMPLIED WARRANTY OF          
# MERCHANTABILITY OR FITNESS FOR A PARTICULAR PURPOSE. SEE THE GNU    
# GENERAL PUBLIC LICENSE FOR MORE DETAILS.                            
#
# YOU SHOULD HAVE RECEIVED A COPY OF THE GNU GENERAL PUBLIC LICENSE   
# ALONG WITH THIS PROGRAM; IF NOT, WRITE TO EDF R&D CODE_ASTER,       
#    1 AVENUE DU GENERAL DE GAULLE, 92141 CLAMART CEDEX, FRANCE.      
# ======================================================================
DEBUT(   CODE=_F( NOM = 'SSNV134C',NIV_PUB_WEB='INTERNET')  )

#----------------------------------------
# NIVEAU / CJS1 / SIG_33 = -100 KPA
#----------------------------------
#
#
BIDON=DEFI_CONSTANTE(    VALE=1.)

UN=DEFI_CONSTANTE(    VALE=1.)

ZERO=DEFI_CONSTANTE(    VALE=0.)

VISCOLIQ=DEFI_CONSTANTE(    VALE=1.E-3)

VISCOGAZ=DEFI_CONSTANTE(    VALE=1.8E-5)

DVISCOL=DEFI_CONSTANTE(    VALE=0.)

DVISCOG=DEFI_CONSTANTE(    VALE=0.)

KINT=DEFI_CONSTANTE(    VALE=1.E-18)

#***********************************************************************
#    MAILLAGE + MODELE
#***********************************************************************

MAILLAGE=LIRE_MAILLAGE( )

MODELE=AFFE_MODELE(     MAILLAGE=MAILLAGE,
                             AFFE=_F(  TOUT = 'OUI',
                                    PHENOMENE = 'MECANIQUE',
                                    MODELISATION = '3D_HM',
                                   )
                          )

MAILLAGE=MODI_MAILLAGE( reuse=MAILLAGE,   MAILLAGE=MAILLAGE,
                                MODELE=MODELE,
                       ORIE_PEAU_3D=_F(  GROUP_MA = ('HAUT', 'DEVANT', 'DROITE',),  )
                     )

SOL=DEFI_MATERIAU(    ELAS=_F(  E = 22.4E6,    NU = 0.3,  
                                     RHO = 2500.,  
                                     ALPHA = 1.E-5,  
                                   ), 
                               CJS=_F(  BETA_CJS = -0.03,   
                                     GAMMA_CJS = 0.82,  
                                     RM = 0.289,         
                                     PA = -100.0E3,         
                                    ),
                               THM_LIQU=_F(  
                                RHO = 1000.,  
#                               UN_SUR_K : 0.5E-9
                                UN_SUR_K = 0.0,  
                                ALPHA = 1.E-4,  
                                CP = 4180.,  
                                VISC = VISCOLIQ,   
                                D_VISC_TEMP = DVISCOL,  
                                LAMBDA = BIDON,  
                                D_LAMBDA_TEMP = BIDON, 
                                        ),
                              THM_GAZ=_F( 
                                MASS_MOL = 28.96E-3,  
                                CP = 1000.,  
                                VISC = VISCOGAZ,  
                                D_VISC_TEMP = DVISCOG,  
                                LAMBDA = BIDON,  
                                D_LAMBDA_TEMP = BIDON,  
                                  ),
                              THM_VAPE_GAZ=_F( 
                                MASS_MOL = 18.E-3,  
                                CP = 1870.,  
                                VISC = BIDON,  
                                D_VISC_TEMP = BIDON,  
                                 ),      
                              THM_DIFFU=_F( 
                                R_GAZ = 8.315,  
                                RHO = 2400.,  
                                CP = 800.,  
#                               BIOT_COEF : 0.7
                                BIOT_COEF = 1.,  
                                SATU_PRES = UN,  
                                D_SATU_PRES = ZERO,  
                                PESA_X = 0.,  
                                PESA_Y = 0.,  
                                PESA_Z = 0.,  
                                PERM_IN = KINT, 
                                PERM_LIQU = UN,  
                                D_PERM_LIQU_SATU = ZERO,  
                                PERM_GAZ = UN,  
                                D_PERM_SATU_GAZ = ZERO,  
                                D_PERM_PRES_GAZ = ZERO,  
                                FICK = BIDON,  
                                D_FICK_TEMP = BIDON,  
                                D_FICK_GAZ_PRES = BIDON,  
                                LAMBDA = BIDON,  
                                D_LAMBDA_TEMP = BIDON,  
                                 ),
                              THM_INIT=_F( 
                                TEMP = 293.,  
                                PRE1 = 1.0,  
                                PRE2 = 0.1E6,  
                                PORO = 0.14,  
                                PRES_VAPE = 2269.8,  
                                )
                           )

CHMAT=AFFE_MATERIAU(    MAILLAGE=MAILLAGE,
                             AFFE=_F(  TOUT = 'OUI',    MATER = SOL,  )
                          )

PR_LATE=AFFE_CHAR_MECA(    MODELE=MODELE,
                              PRES_REP=_F(   GROUP_MA = ( 'DEVANT', 'DROITE', ),  
                                          PRES = 1.,  
                                    )
                       )

PR_V=AFFE_CHAR_MECA(    MODELE=MODELE,
                             PRES_REP=_F(   GROUP_MA = 'HAUT',    PRES = 1.,  
                                    )
                        )

DEP_SYM=AFFE_CHAR_MECA(    MODELE=MODELE,FACE_IMPO=(
                              _F(  GROUP_MA = 'BAS',    DZ = 0.,   ),
                              _F(  GROUP_MA = 'DERRIERE',    DX = 0.,   ),
                              _F(  GROUP_MA = 'GAUCHE',    DY = 0.,   ))
                           )

P0=AFFE_CHAR_MECA(    MODELE=MODELE,
                               DDL_IMPO=_F(  TOUT = 'OUI',   PRE1 = 0.,  )
                           )

EVOL_HYD=DEFI_FONCTION(      NOM_PARA='INST',
                           PROL_DROITE='CONSTANT',
                         VALE=( 0.0,  0.0,
                                1.0,  100.E3,)
                       )

TEMPS1=DEFI_LIST_REEL(   DEBUT=0.,
                            INTERVALLE=_F(  JUSQU_A = 1.,     NOMBRE = 1,  )
                         )

U1=STAT_NON_LINE( 
                            MODELE=MODELE,
                        CHAM_MATER=CHMAT,EXCIT=(
                             _F( 
                CHARGE = PR_LATE,            
                FONC_MULT = EVOL_HYD,         
                ), _F( 
                CHARGE = PR_V,            
                FONC_MULT = EVOL_HYD,         
                ), _F( 
                CHARGE = DEP_SYM,            
                ), _F( 
                CHARGE = P0,            
                )),
                         COMP_INCR=_F( 
                RELATION = 'KIT_HM',          
                RELATION_KIT = (
                  'CJS',        'LIQU_SATU',
                  'HYDR_UTIL',  ),      
                ),
                         INCREMENT=_F( 
                LIST_INST = TEMPS1,         
                ),
                       CONVERGENCE=_F( 
                RESI_GLOB_RELA = 1.E-6,    
                )
              )

U1=CALC_ELEM( reuse=U1,
                            OPTION=(
                  'SIEF_ELNO_ELGA',  'VARI_ELNO_ELGA',),
                          RESULTAT=U1,
                            MODELE=MODELE,
                        CHAM_MATER=CHMAT
              )

TEMPS2=DEFI_LIST_REEL(   DEBUT=1.,INTERVALLE=(
                            _F(  JUSQU_A = 1.05,    NOMBRE = 4,  ),
                            _F(  JUSQU_A = 2.,      NOMBRE = 19,  ))
                         )

DEP_V=AFFE_CHAR_MECA(    MODELE=MODELE,
                              FACE_IMPO=_F(  GROUP_MA = 'HAUT',    DZ = 1.,   )
                           )

EVOL_DEV=DEFI_FONCTION(      NOM_PARA='INST',
                           PROL_DROITE='LINEAIRE',
                          PROL_GAUCHE='CONSTANT',
                         VALE=( 1.0,  -1.785714E-3,
                                2.0,  -0.201785714, )
                       )

#***********************************************************************
#    CALCUL DE LA SOLUTION
#***********************************************************************


U2=STAT_NON_LINE( 
                            MODELE=MODELE,
                        CHAM_MATER=CHMAT,EXCIT=(
                             _F( 
                CHARGE = DEP_SYM,            
                ), _F( 
                CHARGE = PR_LATE,            
                FONC_MULT = EVOL_HYD,         
                ), _F( 
                CHARGE = DEP_V,            
                FONC_MULT = EVOL_DEV,         
                )),
                         COMP_INCR=_F( 
                RELATION = 'KIT_HM',          
                RELATION_KIT = (
                  'CJS',        'LIQU_SATU',
                  'HYDR_UTIL',  ),      
                ),
                         ETAT_INIT=_F( 
                EVOL_NOLI = U1,         
                NUME_ORDRE = 1,        
                ),
                         INCREMENT=_F( 
                LIST_INST = TEMPS2,         
                ),
                            NEWTON=_F( 
                MATRICE = 'TANGENTE',           
                ),
                       CONVERGENCE=_F( 
                RESI_GLOB_RELA = 1.E-6,    
                ITER_GLOB_MAXI = 10,    
                )
              )

U2=CALC_ELEM( reuse=U2,
                            OPTION=(
                  'SIEF_ELNO_ELGA',  'VARI_ELNO_ELGA',),
                          RESULTAT=U2,
                            MODELE=MODELE,
                        CHAM_MATER=CHMAT
              )

U2=CALC_NO(  reuse=U2,     RESULTAT=U2,
                   NUME_ORDRE=(1, 2, 3, 4, 8, 23,),
                       OPTION=( 'SIEF_NOEU_ELGA', )
                )

#
#-------------------------
#    TEST_RESU AU POINT A
#-------------------------

TEST_RESU(RESU=(

# CONTRAINTE SIXX
                _F(  RESULTAT = U2,    
                       NOEUD = 'NO20',      
                       NOM_CHAM = 'SIEF_NOEU_ELGA',    
                       NOM_CMP = 'SIXX',     
                       NUME_ORDRE = 1,  
                       PRECISION = 1.E-5,   
                       VALE = -78.461538E3,        
                     ),
                 _F(  RESULTAT = U2,   
                       NOEUD = 'NO20',      
                       NOM_CHAM = 'SIEF_NOEU_ELGA',    
                       NOM_CMP = 'SIXX',     
                       NUME_ORDRE = 2,  
                       PRECISION = 1.E-5,   
                       VALE = -56.923077E3,        
                     ),
                 _F(  RESULTAT = U2,   
                       NOEUD = 'NO20',      
                       NOM_CHAM = 'SIEF_NOEU_ELGA',    
                       NOM_CMP = 'SIXX',     
                       NUME_ORDRE = 3,  
                       PRECISION = 1.E-5,   
                       VALE = -53.606E3,        
                     ),
                 _F(  RESULTAT = U2,   
                       NOEUD = 'NO20',      
                       NOM_CHAM = 'SIEF_NOEU_ELGA',    
                       NOM_CMP = 'SIXX',     
                       NUME_ORDRE = 4,                         
                       PRECISION = 1.E-5,   
                       VALE = -54.480E3,        
                     ),
                 _F(  RESULTAT = U2,   
                       NOEUD = 'NO20',      
                       NOM_CHAM = 'SIEF_NOEU_ELGA',    
                       NOM_CMP = 'SIXX',     
                       NUME_ORDRE = 8,  
                       PRECISION = 1.E-5,   
                       VALE = -68.467E3,        
                     ),
                 _F(  RESULTAT = U2,   
                       NOEUD = 'NO20',      
                       NOM_CHAM = 'SIEF_NOEU_ELGA',    
                       NOM_CMP = 'SIXX',     
                       NUME_ORDRE = 23,  
                       PRECISION = 1.E-5,   
                       VALE = -120.918E3,        
                     ),
#

# CONTRAINTE SIYY
                _F(  RESULTAT = U2,    
                       NOEUD = 'NO20',      
                       NOM_CHAM = 'SIEF_NOEU_ELGA',    
                       NOM_CMP = 'SIYY',     
                       NUME_ORDRE = 1,  
                       PRECISION = 1.E-5,   
                       VALE = -78.461538E3,        
                     ),
                 _F(  RESULTAT = U2,   
                       NOEUD = 'NO20',      
                       NOM_CHAM = 'SIEF_NOEU_ELGA',    
                       NOM_CMP = 'SIYY',     
                       NUME_ORDRE = 2,  
                       PRECISION = 1.E-5,   
                       VALE = -56.923077E3,        
                     ),
                 _F(  RESULTAT = U2,   
                       NOEUD = 'NO20',      
                       NOM_CHAM = 'SIEF_NOEU_ELGA',    
                       NOM_CMP = 'SIYY',     
                       NUME_ORDRE = 3,  
                       PRECISION = 1.E-5,   
                       VALE = -53.606E3,        
                     ),
                 _F(  RESULTAT = U2,   
                       NOEUD = 'NO20',      
                       NOM_CHAM = 'SIEF_NOEU_ELGA',    
                       NOM_CMP = 'SIYY',     
                       NUME_ORDRE = 4,  
                       PRECISION = 1.E-5,   
                       VALE = -54.480E3,        
                     ),
                 _F(  RESULTAT = U2,   
                       NOEUD = 'NO20',      
                       NOM_CHAM = 'SIEF_NOEU_ELGA',    
                       NOM_CMP = 'SIYY',     
                       NUME_ORDRE = 8,  
                       PRECISION = 1.E-5,   
                       VALE = -68.467E3,        
                     ),
                 _F(  RESULTAT = U2,   
                       NOEUD = 'NO20',      
                       NOM_CHAM = 'SIEF_NOEU_ELGA',    
                       NOM_CMP = 'SIYY',     
                       NUME_ORDRE = 23,  
                       PRECISION = 1.E-5,   
                       VALE = -120.918E3,        
                     ),

# CONTRAINTE SIZZ
                 _F(  RESULTAT = U2,   
                       NOEUD = 'NO20',      
                       NOM_CHAM = 'SIEF_NOEU_ELGA',    
                       NOM_CMP = 'SIZZ',     
                       NUME_ORDRE = 1,  
                       PRECISION = 1.E-5,   
                       VALE = -143.0769E3,        
                     ),
                 _F(  RESULTAT = U2,   
                       NOEUD = 'NO20',      
                       NOM_CHAM = 'SIEF_NOEU_ELGA',    
                       NOM_CMP = 'SIZZ',     
                       NUME_ORDRE = 2,  
                       PRECISION = 1.E-5,   
                       VALE = -186.15385E3,        
                     ),
                 _F(  RESULTAT = U2,   
                       NOEUD = 'NO20',      
                       NOM_CHAM = 'SIEF_NOEU_ELGA',    
                       NOM_CMP = 'SIZZ',     
                       NUME_ORDRE = 3,  
                       PRECISION = 1.E-5,   
                       VALE = -196.818E3,        
                     ),
                 _F(  RESULTAT = U2,   
                       NOEUD = 'NO20',      
                       NOM_CHAM = 'SIEF_NOEU_ELGA',    
                       NOM_CMP = 'SIZZ',     
                       NUME_ORDRE = 4,  
                       PRECISION = 1.E-5,   
                       VALE = -200.028E3,        
                     ),
                 _F(  RESULTAT = U2,   
                       NOEUD = 'NO20',      
                       NOM_CHAM = 'SIEF_NOEU_ELGA',    
                       NOM_CMP = 'SIZZ',     
                       NUME_ORDRE = 8,  
                       PRECISION = 1.E-5,   
                       VALE = -251.383E3,        
                     ),
                 _F(  RESULTAT = U2,   
                       NOEUD = 'NO20',      
                       NOM_CHAM = 'SIEF_NOEU_ELGA',    
                       NOM_CMP = 'SIZZ',     
                       NUME_ORDRE = 23,  
                       PRECISION = 1.E-5,   
                       VALE = -443.961E3,        
                     ),

# PRESSION PRE1
                 _F(  RESULTAT = U2,   
                       NOEUD = 'NO20',      
                       NOM_CHAM = 'DEPL',    
                       NOM_CMP = 'PRE1',     
                       NUME_ORDRE = 1,  
                       PRECISION = 3.E-5,   
                       VALE = 2.1538E+4,        
                     ),
                 _F(  RESULTAT = U2,   
                       NOEUD = 'NO20',      
                       NOM_CHAM = 'DEPL',    
                       NOM_CMP = 'PRE1',     
                       NUME_ORDRE = 2,  
                       PRECISION = 5.E-4,   
                       VALE = 4.3077E+4,        
                     ))
                    )

FIN()
#
#
#
#
