# MODIF  DATE 07/12/2010   AUTEUR PELLET J.PELLET 
# TITRE CYLINDRE EN INCOMPRESSIBLE GRANDES DEFORMATIONS (TRIA6 QUAD8) PLAN
# ssnv112c.para = tps_job 60 mem_job 64Mo ncpus 1 liste_test R
#            CONFIGURATION MANAGEMENT OF EDF VERSION
# ======================================================================
# COPYRIGHT (C) 1991 - 2003  EDF R&D                  WWW.CODE-ASTER.ORG
# THIS PROGRAM IS FREE SOFTWARE; YOU CAN REDISTRIBUTE IT AND/OR MODIFY
# IT UNDER THE TERMS OF THE GNU GENERAL PUBLIC LICENSE AS PUBLISHED BY
# THE FREE SOFTWARE FOUNDATION; EITHER VERSION 2 OF THE LICENSE, OR
# (AT YOUR OPTION) ANY LATER VERSION.
#
# THIS PROGRAM IS DISTRIBUTED IN THE HOPE THAT IT WILL BE USEFUL, BUT
# WITHOUT ANY WARRANTY; WITHOUT EVEN THE IMPLIED WARRANTY OF
# MERCHANTABILITY OR FITNESS FOR A PARTICULAR PURPOSE. SEE THE GNU
# GENERAL PUBLIC LICENSE FOR MORE DETAILS.
#
# YOU SHOULD HAVE RECEIVED A COPY OF THE GNU GENERAL PUBLIC LICENSE
# ALONG WITH THIS PROGRAM; IF NOT, WRITE TO EDF R&D CODE_ASTER,
#    1 AVENUE DU GENERAL DE GAULLE, 92141 CLAMART CEDEX, FRANCE.
# ======================================================================
# CYLINDRE CREUX EN INCOMPRESSIBLE (NU=0.4999)
# SOUS DEPLACEMENT RADIAL (6.E-5m)
#
# MODELISATION : ELEMENTS MECANIQUE PLAN_INCO (TRIA6 QUAD8)
# MAILLAGE     : ALIBABA > ASTER
# ----------------------------------------------------------------------
# GROUPES DE NOEUDS ET MAILLES: A B C D E F
#              BORDAB=GRNM11    FACEEF=GRMA12     FACEAE=GRMA13
# ----------------------------------------------------------------------

DEBUT(CODE=_F(NOM='SSNV112C',
              NIV_PUB_WEB='INTERNET',),
      DEBUG=_F(SDVERI='OUI',),);

M=LIRE_MAILLAGE();

MO=AFFE_MODELE(MAILLAGE=M,
               VERIF='MAILLE',
               AFFE=_F(TOUT='OUI',
                       PHENOMENE='MECANIQUE',
                       MODELISATION='D_PLAN_INCO_GD',),);

MA=DEFI_MATERIAU(ELAS=_F(E=200000.0,
                         NU=0.4999,
                         ALPHA=0.,),
                 ECRO_LINE=_F(D_SIGM_EPSI=0.,
                              SY=1.E6,),);

CM=AFFE_MATERIAU(MAILLAGE=M,
                 AFFE=_F(TOUT='OUI',
                         MATER=MA,),);

CLIM=AFFE_CHAR_MECA(MODELE=MO,
                    DDL_IMPO=_F(GROUP_MA='GRMA11',
                                DX=0.0,),
                    FACE_IMPO=(_F(GROUP_MA='GRMA12',
                                  DNOR=0.0,),
                               _F(GROUP_MA='GRMA13',
                                  DNOR=-6e-05,),),);

L_INST1=DEFI_LIST_REEL(DEBUT=0.0,
                       INTERVALLE=_F(JUSQU_A=1.0,
                                     NOMBRE=1,),);

RAMPE=DEFI_FONCTION(NOM_PARA='INST',VALE=(0.0,0.0,
                          1.0,1.0,
                          ),PROL_DROITE='CONSTANT',);

# LES SYSTEMES LINEAIRES SONT DIFFICILES A RESOUDRE.
# ON DEVERROUILLE LA DETECTION DE SINGULARITE. LE PROCESSUS DE NEWTON
# CORRIGE LES EVENTUELLES DERIVES.
EVOL=STAT_NON_LINE(MODELE=MO,
                   CHAM_MATER=CM,
                   EXCIT=_F(CHARGE=CLIM,
                            FONC_MULT=RAMPE,),
                   COMP_INCR=_F(RELATION='VMIS_ISOT_LINE',
                                DEFORMATION='SIMO_MIEHE',),
                   INCREMENT=_F(LIST_INST=L_INST1,),
                   NEWTON=_F(REAC_ITER=1,),
                   CONVERGENCE=_F(SIGM_REFE=60.0,
                                  EPSI_REFE=3.E-4,
                                  RESI_REFE_RELA=1.E-3,),
                   SOLVEUR=_F(METHODE='MUMPS',
                              PCENT_PIVOT=50,NPREC=-1),);

EVOL=CALC_ELEM(reuse =EVOL,
               RESULTAT=EVOL,
               OPTION=('SIEF_ELNO_ELGA','EQUI_ELNO_SIGM','ERME_ELEM','ERME_ELNO',),);

EVOL=CALC_NO(reuse =EVOL,
             RESULTAT=EVOL,
             OPTION=('SIEF_NOEU_ELGA','EQUI_NOEU_SIGM',),);

#---------------------------------------------------------------
#    POSTTRAITEMENT

TEST_RESU(RESU=(_F(RESULTAT=EVOL,
                   INST=1.0,
                   NOM_CHAM='DEPL',
                   NOM_CMP='DX',
                   GROUP_NO='A',
                   VALE=0.0,
                   CRITERE='ABSOLU',
                   PRECISION=1e-05,
                   REFERENCE='ANALYTIQUE',),
                _F(RESULTAT=EVOL,
                   INST=1.0,
                   NOM_CHAM='DEPL',
                   NOM_CMP='DY',
                   GROUP_NO='A',
                   VALE=6e-05,
                   CRITERE='RELATIF',
                   PRECISION=0.005,
                   REFERENCE='ANALYTIQUE',),
                _F(RESULTAT=EVOL,
                   INST=1.0,
                   NOM_CHAM='DEPL',
                   NOM_CMP='DX',
                   GROUP_NO='F',
                   VALE=-2.1217941e-05,
                   CRITERE='RELATIF',
                   PRECISION=0.005,
                   REFERENCE='ANALYTIQUE',),
                _F(RESULTAT=EVOL,
                   INST=1.0,
                   NOM_CHAM='DEPL',
                   NOM_CMP='DY',
                   GROUP_NO='F',
                   VALE=2.1217941e-05,
                   CRITERE='RELATIF',
                   PRECISION=0.005,
                   REFERENCE='ANALYTIQUE',),),);

TEST_RESU(RESU=(_F(RESULTAT=EVOL,
                   INST=1.0,
                   NOM_CHAM='SIEF_NOEU_ELGA',
                   NOM_CMP='SIXX',
                   MAILLE='M1',
                   GROUP_NO='A',
                   VALE=99.9566,
                   CRITERE='RELATIF',
                   PRECISION=0.005,
                   REFERENCE='ANALYTIQUE',),
                _F(RESULTAT=EVOL,
                   INST=1.0,
                   NOM_CHAM='SIEF_NOEU_ELGA',
                   NOM_CMP='SIYY',
                   MAILLE='M1',
                   GROUP_NO='A',
                   VALE=-59.9955,
                   CRITERE='RELATIF',
                   PRECISION=0.03,
                   REFERENCE='ANALYTIQUE',),
                _F(RESULTAT=EVOL,
                   INST=1.0,
                   NOM_CHAM='SIEF_NOEU_ELGA',
                   NOM_CMP='SIZZ',
                   MAILLE='M1',
                   GROUP_NO='A',
                   VALE=19.9326,
                   CRITERE='RELATIF',
                   PRECISION=0.03,
                   REFERENCE='ANALYTIQUE',),
                _F(RESULTAT=EVOL,
                   INST=1.0,
                   NOM_CHAM='SIEF_NOEU_ELGA',
                   NOM_CMP='SIXY',
                   MAILLE='M1',
                   GROUP_NO='A',
                   VALE=0.0,
                   CRITERE='ABSOLU',
                   PRECISION=3.0,
                   REFERENCE='ANALYTIQUE',),
                _F(RESULTAT=EVOL,
                   INST=1.0,
                   NOM_CHAM='SIEF_NOEU_ELGA',
                   NOM_CMP='SIXX',
                   MAILLE='M223',
                   GROUP_NO='F',
                   VALE=20.003,
                   CRITERE='RELATIF',
                   PRECISION=0.005,
                   REFERENCE='ANALYTIQUE',),
                _F(RESULTAT=EVOL,
                   INST=1.0,
                   NOM_CHAM='SIEF_NOEU_ELGA',
                   NOM_CMP='SIYY',
                   MAILLE='M223',
                   GROUP_NO='F',
                   VALE=20.003,
                   CRITERE='RELATIF',
                   PRECISION=0.005,
                   REFERENCE='ANALYTIQUE',),
                _F(RESULTAT=EVOL,
                   INST=1.0,
                   NOM_CHAM='SIEF_NOEU_ELGA',
                   NOM_CMP='SIZZ',
                   MAILLE='M223',
                   GROUP_NO='F',
                   VALE=20.003,
                   CRITERE='RELATIF',
                   PRECISION=0.005,
                   REFERENCE='ANALYTIQUE',),
                _F(RESULTAT=EVOL,
                   INST=1.0,
                   NOM_CHAM='SIEF_NOEU_ELGA',
                   NOM_CMP='SIXY',
                   MAILLE='M223',
                   GROUP_NO='F',
                   VALE=20.003,
                   CRITERE='RELATIF',
                   PRECISION=0.005,
                   REFERENCE='ANALYTIQUE',),),);

TEST_RESU(RESU=(_F(RESULTAT=EVOL,
                   INST=1.0,
                   NOM_CHAM='EQUI_NOEU_SIGM',
                   NOM_CMP='VMIS',
                   MAILLE='M1',
                   GROUP_NO='A',
                   VALE=138.5226,
                   CRITERE='RELATIF',
                   PRECISION=0.02,
                   REFERENCE='ANALYTIQUE',),
                _F(RESULTAT=EVOL,
                   INST=1.0,
                   NOM_CHAM='EQUI_NOEU_SIGM',
                   NOM_CMP='TRESCA',
                   MAILLE='M1',
                   GROUP_NO='A',
                   VALE=159.9521,
                   CRITERE='RELATIF',
                   PRECISION=0.02,
                   REFERENCE='ANALYTIQUE',),
                _F(RESULTAT=EVOL,
                   INST=1.0,
                   NOM_CHAM='EQUI_NOEU_SIGM',
                   NOM_CMP='PRIN_1',
                   MAILLE='M1',
                   GROUP_NO='A',
                   VALE=-59.9955,
                   CRITERE='RELATIF',
                   PRECISION=0.03,
                   REFERENCE='ANALYTIQUE',),
                _F(RESULTAT=EVOL,
                   INST=1.0,
                   NOM_CHAM='EQUI_NOEU_SIGM',
                   NOM_CMP='PRIN_2',
                   MAILLE='M1',
                   GROUP_NO='A',
                   VALE=19.9326,
                   CRITERE='RELATIF',
                   PRECISION=0.03,
                   REFERENCE='ANALYTIQUE',),
                _F(RESULTAT=EVOL,
                   INST=1.0,
                   NOM_CHAM='EQUI_NOEU_SIGM',
                   NOM_CMP='PRIN_3',
                   MAILLE='M1',
                   GROUP_NO='A',
                   VALE=99.9566,
                   CRITERE='RELATIF',
                   PRECISION=0.02,
                   REFERENCE='ANALYTIQUE',),
                _F(RESULTAT=EVOL,
                   INST=1.0,
                   NOM_CHAM='EQUI_NOEU_SIGM',
                   NOM_CMP='VMIS_SG',
                   MAILLE='M1',
                   GROUP_NO='A',
                   VALE=138.5226,
                   CRITERE='RELATIF',
                   PRECISION=0.02,
                   REFERENCE='ANALYTIQUE',),),);

#
#  TEST SUR L'ESTIMATEUR D'ERREUR EN RESIDU

TEST_RESU(RESU=_F(RESULTAT=EVOL,
                  INST=1.0,
                  NOM_CHAM='ERME_ELEM',
                  NOM_CMP='NUEST',
                  MAILLE='M2',
                  POINT=1,
                  VALE=7.7148429516808E-04,
                  CRITERE='RELATIF',
                  PRECISION=5e-07,
                  REFERENCE='NON_REGRESSION',
                  VERSION='10.0.16',),);

TEST_RESU(RESU=_F(RESULTAT=EVOL,
                  INST=1.0,
                  NOM_CHAM='ERME_ELNO',
                  NOM_CMP='ERREST',
                  MAILLE='M2',
                  GROUP_NO='A',
                  VALE=3.8996140668055E-06,
                  CRITERE='RELATIF',
                  PRECISION=5e-07,
                  REFERENCE='NON_REGRESSION',
                  VERSION='10.0.16',),);

FIN();
