# TITRE ROTATION ET TRACTION 3D GRANDES DEFORMATIONS (LOI LINEAIRE)
# ======================================================================
# COPYRIGHT (C) 1991 - 2015  EDF R&D                  WWW.CODE-ASTER.ORG
# THIS PROGRAM IS FREE SOFTWARE; YOU CAN REDISTRIBUTE IT AND/OR MODIFY
# IT UNDER THE TERMS OF THE GNU GENERAL PUBLIC LICENSE AS PUBLISHED BY
# THE FREE SOFTWARE FOUNDATION; EITHER VERSION 2 OF THE LICENSE, OR
# (AT YOUR OPTION) ANY LATER VERSION.
#
# THIS PROGRAM IS DISTRIBUTED IN THE HOPE THAT IT WILL BE USEFUL, BUT
# WITHOUT ANY WARRANTY; WITHOUT EVEN THE IMPLIED WARRANTY OF
# MERCHANTABILITY OR FITNESS FOR A PARTICULAR PURPOSE. SEE THE GNU
# GENERAL PUBLIC LICENSE FOR MORE DETAILS.
#
# YOU SHOULD HAVE RECEIVED A COPY OF THE GNU GENERAL PUBLIC LICENSE
# ALONG WITH THIS PROGRAM; IF NOT, WRITE TO EDF R&D CODE_ASTER,
#    1 AVENUE DU GENERAL DE GAULLE, 92141 CLAMART CEDEX, FRANCE.
# ======================================================================


DEBUT(CODE=_F(NIV_PUB_WEB='INTERNET'),DEBUG=_F(SDVERI='OUI'))

MA=LIRE_MAILLAGE()

MO=AFFE_MODELE(
               MAILLAGE=MA,
                  
             AFFE=_F(
               TOUT = 'OUI',
               PHENOMENE = 'MECANIQUE',
               MODELISATION = '3D')
             )

ACIER=DEFI_MATERIAU(
                   ELAS=_F(
               E = 200000.,
               NU = 0.3)
             )

CHP_MATE=AFFE_MATERIAU(
               MAILLAGE=MA,
                   AFFE=_F(
               TOUT = 'OUI',
               MATER = ACIER)
             )

L_INST=DEFI_LIST_REEL(
              DEBUT=0.0,INTERVALLE=(

              _F( JUSQU_A = 0.1,  NOMBRE = 10),
              _F( JUSQU_A = 1.,   NOMBRE = 9),
              _F( JUSQU_A = 2.,   NOMBRE = 5),
              _F( JUSQU_A = 2.99, NOMBRE = 15),
              _F( JUSQU_A = 3.,   NOMBRE = 10))
             )

F_CHAR=DEFI_FONCTION(
                NOM_PARA='INST',
              PROL_DROITE='CONSTANT',
                    VALE=(
               0.,  0.,
               1.,  0.,
               2.,  1.,
               3.,  0.,
               )
             )

F_ROTA=DEFI_FONCTION(
                NOM_PARA='INST',
              PROL_DROITE='CONSTANT',
                    VALE=(
               0.,  0.,
               1.,  1.,
               2.,  1.,
               3.,  0.,
               )
             )

CHR_PLAN=AFFE_CHAR_MECA(
              MODELE=MO,

               DDL_IMPO=_F( NOEUD = ('NO1', 'NO2', 'NO3', 'NO4', 'NO5', 'NO6', 'NO7', 'NO8',), DZ = 0.)
           )

CHR_ROTA=AFFE_CHAR_MECA(
               MODELE=MO,DDL_IMPO=(

              _F( NOEUD = ('NO3', 'NO7',),  DX = 0.,     DY = 0.),
              _F( NOEUD = ('NO1', 'NO5',),  DX = -1000., DY = -1000.),
              _F( NOEUD = ('NO2', 'NO6',),  DX = -2000.),
              _F( NOEUD = ('NO4', 'NO8',),  DX = -1000.))
             )

CHR_FORC=AFFE_CHAR_MECA(
                     MODELE=MO,
                 FORCE_FACE=_F( MAILLE = 'MA2',  FY = 31096.154)
             )

#
# LA CHARGE CHR_FORC VA ETRE PASSEE A STAT_NON_LINE SOUS
# LA FORME D'UN VECTEUR ASSEMBLE
#
MATEL1=CALC_MATR_ELEM(        MODELE=MO,
                            CHAM_MATER=CHP_MATE,
                                OPTION='RIGI_MECA' )

NUM1=NUME_DDL(    MATR_RIGI=MATEL1 )

VE1=CALC_VECT_ELEM(        OPTION='CHAR_MECA',
                         CHAM_MATER=CHP_MATE,
                             CHARGE=CHR_FORC )

F1=ASSE_VECTEUR(       VECT_ELEM=VE1,
                          NUME_DDL=NUM1 )

CHA1=AFFE_CHAR_MECA(

                      MODELE=MO,
                   VECT_ASSE=F1
              )

V=STAT_NON_LINE(
                            MODELE=MO,
                        CHAM_MATER=CHP_MATE,EXCIT=(
                             _F(
                CHARGE = CHR_PLAN), _F(
                CHARGE = CHR_ROTA,
                FONC_MULT = F_ROTA), _F(
                CHARGE = CHA1,
                FONC_MULT = F_CHAR)),
                         COMPORTEMENT=_F(
                RELATION = 'ELAS',
                DEFORMATION = 'GROT_GDEP'),
                         INCREMENT=_F(
                LIST_INST = L_INST,
                NUME_INST_FIN = 19),
                            NEWTON=_F(
                MATRICE = 'TANGENTE',
                REAC_ITER = 1),
                       CONVERGENCE=_F(
                RESI_GLOB_MAXI = 1.E-3,
                ITER_GLOB_MAXI = 50)
              )

V=STAT_NON_LINE( reuse=V,
                            MODELE=MO,
                        CHAM_MATER=CHP_MATE,EXCIT=(
                             _F(
                CHARGE = CHR_PLAN), _F(
                CHARGE = CHR_ROTA,
                FONC_MULT = F_ROTA), _F(
                CHARGE = CHA1,
                FONC_MULT = F_CHAR)),
                         ETAT_INIT=_F(
                EVOL_NOLI = V,
                NUME_ORDRE = 19),
                         COMPORTEMENT=_F(
                RELATION = 'ELAS',
                DEFORMATION = 'GROT_GDEP'),
                         INCREMENT=_F(
                LIST_INST = L_INST,
                NUME_INST_FIN = 49),
                            NEWTON=_F(
                MATRICE = 'TANGENTE',
                REAC_ITER = 1),
                       CONVERGENCE=_F(
                RESI_GLOB_MAXI = 1.E-3,
                ITER_GLOB_MAXI = 50)
              )

V=CALC_CHAMP( reuse=V,
                RESULTAT=V,
                  FORCE='FORC_NODA',
             )

V=CALC_CHAMP(reuse=V,RESULTAT=V,DEFORMATION=('EPSG_ELNO','EPMG_ELNO','EPMG_ELGA'))


TEST_RESU(RESU=(_F(INST=2.0,
                   RESULTAT=V,
                   NOM_CHAM='DEPL',
                   NOEUD='NO2',
                   NOM_CMP='DX',
                   VALE_CALC=-2000.0,
                   VALE_REFE=-2000.0,
                   REFERENCE = 'ANALYTIQUE',
                   PRECISION=1.E-3,
                   ),
                _F(INST=2.0,
                   RESULTAT=V,
                   NOM_CHAM='DEPL',
                   NOEUD='NO2',
                   NOM_CMP='DY',
                   VALE_CALC=100.00000043455,
                   VALE_REFE=100.0,
                   REFERENCE = 'ANALYTIQUE',
                   PRECISION=1.E-3,
                   ),
                _F(INST=2.0,
                   RESULTAT=V,
                   NOM_CHAM='DEPL',
                   NOEUD='NO4',
                   NOM_CMP='DY',
                   VALE_CALC=1100.0000004345,
                   VALE_REFE=1100.0,
                   REFERENCE = 'ANALYTIQUE',
                   PRECISION=1.E-3,
                   ),
                _F(INST=2.0,
                   POINT=1,
                   RESULTAT=V,
                   NOM_CHAM='SIEF_ELGA',
                   NOM_CMP='SIXX',
                   VALE_CALC=11013.986059775,
                   VALE_REFE=1.1013986000000001E4,
                   REFERENCE = 'ANALYTIQUE',
                   PRECISION=1.E-3,
                   MAILLE='MA1',),
                _F(INST=2.0,
                   POINT=1,
                   RESULTAT=V,
                   NOM_CHAM='SIEF_ELGA',
                   NOM_CMP='SIYY',
                   VALE_CALC=31096.154,
                   VALE_REFE=3.1096153999999999E4,
                   REFERENCE = 'ANALYTIQUE',
                   PRECISION=1.E-3,
                   MAILLE='MA1',),
                _F(INST=2.0,
                   POINT=1,
                   RESULTAT=V,
                   NOM_CHAM='SIEF_ELGA',
                   NOM_CMP='SIZZ',
                   VALE_CALC=11013.986059775,
                   VALE_REFE=1.1013986000000001E4,
                   REFERENCE = 'ANALYTIQUE',
                   PRECISION=1.E-3,
                   MAILLE='MA1',),
                _F(INST=2.0,
                   POINT=1,
                   RESULTAT=V,
                   NOM_CHAM='SIEF_ELGA',
                   NOM_CMP='SIXY',
                   VALE_CALC=7.6628680459427E-12,
                   VALE_REFE=0.0,
                   REFERENCE = 'ANALYTIQUE',
                   PRECISION=1.E-3,
                   CRITERE='ABSOLU',
                   MAILLE='MA1',),
                _F(INST=2.0,
                   POINT=1,
                   RESULTAT=V,
                   NOM_CHAM='SIEF_ELGA',
                   NOM_CMP='SIXZ',
                   VALE_CALC=2.3891131088548E-25,
                   VALE_REFE=0.0,
                   REFERENCE = 'ANALYTIQUE',
                   PRECISION=1.E-3,
                   CRITERE='ABSOLU',
                   MAILLE='MA1',),
                _F(INST=2.0,
                   POINT=1,
                   RESULTAT=V,
                   NOM_CHAM='SIEF_ELGA',
                   NOM_CMP='SIYZ',
                   VALE_CALC=-1.5925489378664E-11,
                   VALE_REFE=0.0,
                   REFERENCE = 'ANALYTIQUE',
                   PRECISION=1.E-3,
                   CRITERE='ABSOLU',
                   MAILLE='MA1',),
                _F(INST=3.0,
                   RESULTAT=V,
                   NOM_CHAM='DEPL',
                   NOEUD='NO2',
                   NOM_CMP='DY',
                   VALE_CALC=-2.2524392777615E-18,
                   VALE_REFE=0.0,
                   REFERENCE = 'ANALYTIQUE',
                   PRECISION=1.E-3,
                   CRITERE='ABSOLU',
                   ),
                _F(INST=3.0,
                   RESULTAT=V,
                   NOM_CHAM='DEPL',
                   NOEUD='NO4',
                   NOM_CMP='DY',
                   VALE_CALC=-2.2287531263572E-17,
                   VALE_REFE=0.0,
                   REFERENCE = 'ANALYTIQUE',
                   PRECISION=1.E-3,
                   CRITERE='ABSOLU',
                   ),
                _F(INST=3.0,
                   POINT=1,
                   RESULTAT=V,
                   NOM_CHAM='SIEF_ELGA',
                   NOM_CMP='SIXX',
                   VALE_CALC=-1.4085519095335E-22,
                   VALE_REFE=0.0,
                   REFERENCE = 'ANALYTIQUE',
                   PRECISION=1.E-3,
                   CRITERE='ABSOLU',
                   MAILLE='MA1',),
                _F(INST=3.0,
                   POINT=1,
                   RESULTAT=V,
                   NOM_CHAM='SIEF_ELGA',
                   NOM_CMP='SIXY',
                   VALE_CALC=1.4716547649846E-23,
                   VALE_REFE=0.0,
                   REFERENCE = 'ANALYTIQUE',
                   PRECISION=1.E-3,
                   CRITERE='ABSOLU',
                   MAILLE='MA1',),
                _F(INST=3.0,
                   POINT=1,
                   RESULTAT=V,
                   NOM_CHAM='SIEF_ELGA',
                   NOM_CMP='SIYY',
                   VALE_CALC=-4.9515537000749E-23,
                   VALE_REFE=0.0,
                   REFERENCE = 'ANALYTIQUE',
                   PRECISION=1.E-3,
                   CRITERE='ABSOLU',
                   MAILLE='MA1',),
                _F(INST=3.0,
                   POINT=1,
                   RESULTAT=V,
                   NOM_CHAM='SIEF_ELGA',
                   NOM_CMP='SIXZ',
                   VALE_CALC=3.7170890863875E-23,
                   VALE_REFE=0.0,
                   REFERENCE = 'ANALYTIQUE',
                   PRECISION=1.E-3,
                   CRITERE='ABSOLU',
                   MAILLE='MA1',),
                _F(INST=3.0,
                   POINT=1,
                   RESULTAT=V,
                   NOM_CHAM='SIEF_ELGA',
                   NOM_CMP='SIYZ',
                   VALE_CALC=6.2311620635195E-23,
                   VALE_REFE=0.0,
                   REFERENCE = 'ANALYTIQUE',
                   PRECISION=1.E-3,
                   CRITERE='ABSOLU',
                   MAILLE='MA1',),
                _F(INST=3.0,
                   POINT=1,
                   RESULTAT=V,
                   NOM_CHAM='SIEF_ELGA',
                   NOM_CMP='SIZZ',
                   VALE_CALC=-2.8587088909578E-22,
                   VALE_REFE=0.0,
                   REFERENCE = 'ANALYTIQUE',
                   PRECISION=1.E-3,
                   CRITERE='ABSOLU',
                   MAILLE='MA1',),
                _F(INST=2.0,
                   RESULTAT=V,
                   NOM_CHAM='FORC_NODA',
                   NOEUD='NO8',
                   NOM_CMP='DX',
                   VALE_CALC=3.0288461676346E+09,
                   VALE_REFE=3.028900000E9,
                   REFERENCE = 'ANALYTIQUE',
                   PRECISION=1.E-3,
                   ),
                _F(INST=2.0,
                   RESULTAT=V,
                   NOM_CHAM='FORC_NODA',
                   NOEUD='NO8',
                   NOM_CMP='DZ',
                   VALE_CALC=3.0288461676346E+09,
                   VALE_REFE=3.028900000E9,
                   REFERENCE = 'ANALYTIQUE',
                   PRECISION=1.E-3,
                   ),
                _F(INST=2.0,
                   RESULTAT=V,
                   NOM_CHAM='FORC_NODA',
                   NOEUD='NO8',
                   NOM_CMP='DY',
                   VALE_CALC=7.7740385E+09,
                   VALE_REFE=7.774000000E9,
                   REFERENCE = 'ANALYTIQUE',
                   PRECISION=1.E-3,
                   ),
                _F(INST=2.0,
                   RESULTAT=V,
                   NOM_CHAM='EPSG_ELNO',
                   NOEUD='NO8',
                   NOM_CMP='EPXX',
                   VALE_CALC=0.10500000047800,
                   VALE_REFE=0.105,
                   REFERENCE = 'ANALYTIQUE',
                   PRECISION=1.E-3,
                   MAILLE='MA1',),
                _F(INST=2.0,
                   RESULTAT=V,
                   NOM_CHAM='EPMG_ELNO',
                   NOEUD='NO8',
                   NOM_CMP='EPXX',
                   VALE_CALC=0.10500000047800,
                   VALE_REFE=0.105,
                   REFERENCE = 'ANALYTIQUE',
                   PRECISION=1.E-3,
                   MAILLE='MA1',),
                _F(INST=2.0,
                   RESULTAT=V,
                   NOM_CHAM='EPSG_ELNO',
                   NOEUD='NO8',
                   NOM_CMP='EPYY',
                   VALE_CALC=-2.9242992429963E-16,
                   VALE_REFE=0.0,
                   REFERENCE = 'ANALYTIQUE',
                   PRECISION=1.E-3,
                   CRITERE='ABSOLU',
                   MAILLE='MA1',),
                _F(INST=2.0,
                   RESULTAT=V,
                   NOM_CHAM='EPSG_ELNO',
                   NOEUD='NO8',
                   NOM_CMP='EPZZ',
                   VALE_CALC=-2.2279491107214E-30,
                   VALE_REFE=0.0,
                   REFERENCE = 'ANALYTIQUE',
                   PRECISION=1.E-3,
                   CRITERE='ABSOLU',
                   MAILLE='MA1',),
                _F(INST=2.0,
                   RESULTAT=V,
                   NOM_CHAM='EPSG_ELNO',
                   NOEUD='NO8',
                   NOM_CMP='EPXY',
                   VALE_CALC=4.7157780615943E-16,
                   VALE_REFE=0.0,
                   REFERENCE = 'ANALYTIQUE',
                   PRECISION=1.E-3,
                   CRITERE='ABSOLU',
                   MAILLE='MA1',),
                _F(INST=2.0,
                   RESULTAT=V,
                   NOM_CHAM='EPSG_ELNO',
                   NOEUD='NO8',
                   NOM_CMP='EPXZ',
                   VALE_CALC=2.2894773057693E-17,
                   VALE_REFE=0.0,
                   REFERENCE = 'ANALYTIQUE',
                   PRECISION=1.E-3,
                   CRITERE='ABSOLU',
                   MAILLE='MA1',),
                _F(INST=2.0,
                   RESULTAT=V,
                   NOM_CHAM='EPSG_ELNO',
                   NOEUD='NO8',
                   NOM_CMP='EPYZ',
                   VALE_CALC=9.2963550895859E-18,
                   VALE_REFE=0.0,
                   REFERENCE = 'ANALYTIQUE',
                   PRECISION=1.E-3,
                   CRITERE='ABSOLU',
                   MAILLE='MA1',),
                ),
          )

FIN()
#
