# MODIF  DATE 28/02/2006   AUTEUR MASSIN P.MASSIN 
# TITRE BLOC AVEC INTERFACE EN CONTACT FROTTANT AVEC X-FEM
#            CONFIGURATION MANAGEMENT OF EDF VERSION
# ======================================================================
# COPYRIGHT (C) 1991 - 2006  EDF R&D                  WWW.CODE-ASTER.ORG
# THIS PROGRAM IS FREE SOFTWARE; YOU CAN REDISTRIBUTE IT AND/OR MODIFY  
# IT UNDER THE TERMS OF THE GNU GENERAL PUBLIC LICENSE AS PUBLISHED BY  
# THE FREE SOFTWARE FOUNDATION; EITHER VERSION 2 OF THE LICENSE, OR     
# (AT YOUR OPTION) ANY LATER VERSION.                                                    
#                                                                       
# THIS PROGRAM IS DISTRIBUTED IN THE HOPE THAT IT WILL BE USEFUL, BUT   
# WITHOUT ANY WARRANTY; WITHOUT EVEN THE IMPLIED WARRANTY OF            
# MERCHANTABILITY OR FITNESS FOR A PARTICULAR PURPOSE. SEE THE GNU      
# GENERAL PUBLIC LICENSE FOR MORE DETAILS.                              
#                                                                       
# YOU SHOULD HAVE RECEIVED A COPY OF THE GNU GENERAL PUBLIC LICENSE     
# ALONG WITH THIS PROGRAM; IF NOT, WRITE TO EDF R&D CODE_ASTER,         
#    1 AVENUE DU GENERAL DE GAULLE, 92141 CLAMART CEDEX, FRANCE.        
# ======================================================================

DEBUT(CODE=_F(NOM='SSNV182D',
              NIV_PUB_WEB='INTERNET',),);

PRE_GIBI();

MAILLAG1=LIRE_MAILLAGE(INFO=1,);

MAILLAG2=CREA_MAILLAGE(MAILLAGE=MAILLAG1,
                        LINE_QUAD=_F(GROUP_MA='SURF',),);

MAILLAG2=DEFI_GROUP(reuse =MAILLAG2,
                    MAILLAGE=MAILLAG2,
                    CREA_GROUP_NO=_F(NOM='SURFQUAD',
                                     GROUP_MA='SURF',),);
             
MODELEIN=AFFE_MODELE(MAILLAGE=MAILLAG2,
                     AFFE=(_F(GROUP_MA=('SURF',),
                              PHENOMENE='MECANIQUE',
                              MODELISATION='C_PLAN_X',),
                           _F(GROUP_MA=('LIG1','LIG3',),
                              PHENOMENE='MECANIQUE',
                              MODELISATION='C_PLAN',),),);       


THETA=-30./180.*pi

LN=FORMULE(NOM_PARA=('X','Y'),VALE='(Y-10)*cos(THETA)-sin(THETA)*(X-10)');
LT=FORMULE(NOM_PARA=('X','Y'),VALE='-X*cos(THETA)-Y*sin(THETA)-100');                 

FISS=DEFI_FISS_XFEM(MODELE=MODELEIN,  
                    DEFI_FISS=_F(
                                 FONC_LT=LT,
                                 FONC_LN=LN,               
                                 ),
                    GROUP_MA_ENRI='SURF',
                    CONTACT=_F(INTEGRATION='GAUSS',
                               COEF_REGU_CONT=100., 
                               ITER_CONT_MAXI=4,   
                               CONTACT_INIT='OUI',    
                               FROTTEMENT='COULOMB',
                               COULOMB=1000.0,
                               ITER_FROT_MAXI=6,
                               COEF_REGU_FROT=1000.,
                               SEUIL_INIT=-5,
                               ),
                    INFO=1,);

MODELEK=MODI_MODELE_XFEM(MODELE_IN=MODELEIN,
                         FISSURE=FISS,
                         INFO=1,);

E=100.0E6
nu=0.
ACIER=DEFI_MATERIAU(ELAS=_F(E=E,
                            NU=nu,
                            RHO=7800.0,),);

CHAMPMAT=AFFE_MATERIAU(MAILLAGE=MAILLAG2,
                       MODELE=MODELEK,
                       AFFE=_F(GROUP_MA=('SURF','LIG1','LIG3',),
                                MATER=ACIER,
                                TEMP_REF=0.0,),);

CH1=AFFE_CHAR_MECA(MODELE=MODELEK,
                   DDL_IMPO=(_F(GROUP_MA='LIG1',
                                          DX=0.0,
                                          DY=0.0,),
                                       _F(GROUP_MA='LIG3',
                                          DX=0.0,
                                          DY=-1.E-6,),),     
                    INFO=1,);
          
CHXFEM=AFFE_CHAR_MECA(MODELE=MODELEK,
                      LIAISON_XFEM='OUI',
                                INFO=1,);

L_INST=DEFI_LIST_REEL(DEBUT=0.0,
                      INTERVALLE=_F(JUSQU_A=1.0,
                                    NOMBRE=1,),);

UTOT1=STAT_NON_LINE(MODELE=MODELEK,
                   CHAM_MATER=CHAMPMAT,              
                   EXCIT=(_F(CHARGE=CHXFEM,),                                           
                          _F(CHARGE=CH1,),),  
                   COMP_ELAS=_F(RELATION='ELAS',
                                GROUP_MA='SURF',),
                   INCREMENT=_F(LIST_INST=L_INST,
                                INST_FIN=1.0,),
                   CONVERGENCE=(_F(ARRET='OUI',
                                  RESI_GLOB_RELA=1E-9)),
                   SOLVEUR=_F(METHODE='MUMPS',
                              PCENT_PIVOT=250,),
                   NEWTON=_F(REAC_ITER=10,),
                   ARCHIVAGE=_F(CHAM_EXCLU='VARI_ELGA',),
                   INFO=1,);


LAG=POST_RELEVE_T(ACTION=_F(INTITULE='DEPLE',
                           # maillage 20_20
                             NOEUD=('N261','NS222','NS223','NS224',
                             'NS259','NS260','NS261','NS298','NS299',
                             'NS335','NS336','NS337','NS372','NS373',
                             'NS374','NS411','NS448','NS449','NS485',
                             'NS486','NS487','NS522','NS523',
                             'NS524','NS561','NS562','NS598',
                             'NS599','NS600','NS636','NS638',),
#                             GROUP_NO='SURFQUAD',
                             RESULTAT=UTOT1,
                             NOM_CHAM='DEPL',
                             NUME_ORDRE=1,
#                             TOUT_CMP='OUI',
                             NOM_CMP=('LAGS_C','LAGS_F1',),
                             OPERATION='EXTRACTION',),);


IMPR_TABLE(TABLE=LAG,
           FORMAT='AGRAF',
           FORMAT_R='1PE12.5',
           FORMAT_C='MODULE_PHASE',
           IMPR_FONCTION='NON',);

LAREF=-5.*3./4.
LA1REF=.001/(3.**.5)

# TESTS
TEST_TABLE(TABLE=LAG,
           NOM_PARA='LAGS_C',
           TYPE_TEST='MAX',
           VALE=LAREF,
           CRITERE='RELATIF',
           PRECISION=1.E-10,
           REFERENCE='ANALYTIQUE',);     

TEST_TABLE(TABLE=LAG,
           NOM_PARA='LAGS_C',
           TYPE_TEST='MIN',
           VALE=LAREF,
           CRITERE='RELATIF',
           PRECISION=1.E-10,
           REFERENCE='ANALYTIQUE',);      

TEST_TABLE(TABLE=LAG,
           NOM_PARA='LAGS_F1',
           TYPE_TEST='MAX',
           VALE=LA1REF,
           CRITERE='ABSOLU',
           PRECISION=1.E-12,
           REFERENCE='ANALYTIQUE',);     

TEST_TABLE(TABLE=LAG,
           NOM_PARA='LAGS_F1',
           TYPE_TEST='MIN',
           VALE=LA1REF,
           CRITERE='ABSOLU',
           PRECISION=1.E-12,
           REFERENCE='ANALYTIQUE',);      

FIN();                  

