# TITRE COUDE EN FLEXION PLANE
# ======================================================================
# COPYRIGHT (C) 1991 - 2012  EDF R&D                  WWW.CODE-ASTER.ORG
# THIS PROGRAM IS FREE SOFTWARE; YOU CAN REDISTRIBUTE IT AND/OR MODIFY
# IT UNDER THE TERMS OF THE GNU GENERAL PUBLIC LICENSE AS PUBLISHED BY
# THE FREE SOFTWARE FOUNDATION; EITHER VERSION 2 OF THE LICENSE, OR
# (AT YOUR OPTION) ANY LATER VERSION.
#
# THIS PROGRAM IS DISTRIBUTED IN THE HOPE THAT IT WILL BE USEFUL, BUT
# WITHOUT ANY WARRANTY; WITHOUT EVEN THE IMPLIED WARRANTY OF
# MERCHANTABILITY OR FITNESS FOR A PARTICULAR PURPOSE. SEE THE GNU
# GENERAL PUBLIC LICENSE FOR MORE DETAILS.
#
# YOU SHOULD HAVE RECEIVED A COPY OF THE GNU GENERAL PUBLIC LICENSE
# ALONG WITH THIS PROGRAM; IF NOT, WRITE TO EDF R&D CODE_ASTER,
#    1 AVENUE DU GENERAL DE GAULLE, 92141 CLAMART CEDEX, FRANCE.
# ======================================================================

DEBUT(CODE=_F(NOM='SSNV144A',NIV_PUB_WEB='INTERNET'),DEBUG=_F(SDVERI='OUI'))

TITRE='CPPN4 CAS 3 COQUE 3D'

COMMENT='360 ELEMENTS QUAD9,136 ELEMENTS SEG3,R=1.250M EP=77MM,FLEXION DANS LE PLAN'

EP=0.077

RMOY=0.3955

RMOYN=- RMOY

REXT=RMOY + (EP/2.)

RC=1.25

LTUBE=1.

L=RC + LTUBE

YOUNG=2.E11

POISSON=0.3

SIGY=200.E6

H=2.E10

K=0.8333333333

MOMENTMZ=1.

FYMAX=MOMENTMZ / (RMOY * RMOY * pi)

FYMAXN=- FYMAX

# MPY ET MPZ SONT DONNES PAR LA COURBE ML/MLS CF RAPPORT BOYLE&SPENCE


MLSURMLS=0.8

BETA=0.001

# PETITS CALCULS


RINT=RMOY - (EP/2.)

LAMBDA=EP*RC/RMOY/RMOY

CFLEX=1.65 / LAMBDA

SURF=pi* (REXT*REXT-RINT*RINT)

IY=pi*(REXT**4-RINT**4)/4.

IZ=IY

IX=IY + IZ

IYFLEX=IY / CFLEX

IZFLEX=IZ / CFLEX

NP=SURF * SIGY

MEDR=SIGY*IY/REXT

MPDR=4.0*MEDR/pi

MPX=SIGY*IX/REXT

# STHETA EST DONNE PAR LA FORMULE DE SOBEL (HOOP STRESS MAX)

GAMMA=RC/RMOY

STHETA1=1.89/(LAMBDA**(0.666667))

STHETA2=0.96/(LAMBDA**(0.333333))/GAMMA

STHETA=STHETA1 - STHETA2

MEFL=MEDR / STHETA

MPFL=MEFL*100.0

#

FDET=MPFL * 1.E-3

#

MAINI=LIRE_MAILLAGE(FORMAT='MED', )

MAINI=DEFI_GROUP( reuse=MAINI,   MAILLAGE=MAINI,
                      CREA_GROUP_MA=_F(  NOM = 'TOUT', TOUT = 'OUI') )

MA=CREA_MAILLAGE(   MAILLAGE=MAINI,
                       MODI_MAILLE=_F( OPTION = 'QUAD8_9',
                                    TOUT = 'OUI')  )

MA=DEFI_GROUP(reuse=MA,  MAILLAGE=MA,CREA_GROUP_NO=(
                 _F( GROUP_MA = 'CERCLE1'),
                 _F( GROUP_MA = 'CERCLE2')))

MO=AFFE_MODELE(        MAILLAGE=MA,
         AFFE=_F( TOUT = 'OUI',  PHENOMENE = 'MECANIQUE',
                     MODELISATION = 'COQUE_3D')
                      )

#------CARACTERESTIQUES ELEMENTAIRES----------------------


CAREL=AFFE_CARA_ELEM(   MODELE=MO,
                                 COQUE=_F(
       GROUP_MA = 'TOUT',

                                        EPAIS = EP,
                                        A_CIS = K,
                                        COEF_RIGI_DRZ = 1.E-5)

                             )

#-------CARCTERESTIQUES DU MATERIAUX----------------------

MAT=DEFI_MATERIAU(   ELAS=_F( E = YOUNG, NU = POISSON),
                       ECRO_LINE=_F( D_SIGM_EPSI = H, SY = 1.E+14)
                    )

CHMAT=AFFE_MATERIAU(   MAILLAGE=MA,
                       AFFE=_F( TOUT = 'OUI', MATER = MAT))

#--------------- NIVEAU DE CHARGE FINAL ------------------


FYMAXI=FYMAX *  FDET

FYMAXNI=- FYMAXI

#-------------- CONDITIONS AUX LIMITES -------------------

FXFY=DEFI_FONCTION(    NOM_PARA='Y',
                         VALE=(  RMOYN,    FYMAXI,
                                 RMOY,     FYMAXNI, ),
                         PROL_DROITE='LINEAIRE',
                         PROL_GAUCHE='LINEAIRE'
                      )

D0=DEFI_CONSTANTE(   VALE=0.)

CHART=AFFE_CHAR_MECA_F(   MODELE=MO,
     DDL_IMPO=_F( GROUP_NO = 'CERCLE1',
              DX = D0, DY = D0, DZ = D0, DRX = D0, DRY = D0, DRZ = D0),
     FORCE_ARETE=_F( GROUP_MA = 'CERCLE2', FX = FXFY)
                      )

#-------------------MECA_STATIQUE-----------------------


LINEAI=MECA_STATIQUE(  MODELE=MO,
                          CHAM_MATER=CHMAT,
                          CARA_ELEM=CAREL,
                         EXCIT=_F(  CHARGE = CHART)
                        )

#
#
#
###  LES COUPLES DE NOEUDS ONT LE MEME X ET Y ET ABS ( Z )
###
###  LE CHARGEMENT EST SUIVANT X
###  SYMETRIE SUIVANT Y
#
#
###
###  MEMES
###
###  DX   DY  ABZ  ( DZ )   ABS ( DRX )  ABS  ( DRY ) ET  ABS ( DRZ )
###
#
#
# ON TESTE LES DEPLACEMENTS LINEAIRES D UNE MANIERE NON REGRESSIVE
##################################################################
#
#     N1157
###########
#
#
TEST_RESU(RESU=_F(NUME_ORDRE=1,
                  RESULTAT=LINEAI,
                  NOM_CHAM='DEPL',
                  NOEUD='N1157',
                  NOM_CMP='DX',
                  VALE_CALC=6.5128486471321E-4,
                  TOLE_MACHINE=6.4900000000000005E-08,
                  CRITERE='RELATIF',
                  ),
          )

#
TEST_RESU(RESU=_F(NUME_ORDRE=1,
                  RESULTAT=LINEAI,
                  NOM_CHAM='DEPL',
                  NOEUD='N1157',
                  NOM_CMP='DY',
                  VALE_CALC=1.0815647473719E-3,
                  TOLE_MACHINE=9.4399999999999998E-07,
                  CRITERE='RELATIF',
                  ),
          )

#
TEST_RESU(RESU=_F(NUME_ORDRE=1,
                  RESULTAT=LINEAI,
                  NOM_CHAM='DEPL',
                  NOEUD='N1157',
                  NOM_CMP='DZ',
                  VALE_CALC=0.0,
                  CRITERE='ABSOLU',
                  ),
          )

#
TEST_RESU(RESU=_F(NUME_ORDRE=1,
                  RESULTAT=LINEAI,
                  NOM_CHAM='DEPL',
                  NOEUD='N1157',
                  NOM_CMP='DRX',
                  VALE_CALC=0.0,
                  CRITERE='ABSOLU',
                  ),
          )

#
TEST_RESU(RESU=_F(NUME_ORDRE=1,
                  RESULTAT=LINEAI,
                  NOM_CHAM='DEPL',
                  NOEUD='N1157',
                  NOM_CMP='DRY',
                  VALE_CALC=0.0,
                  CRITERE='ABSOLU',
                  ),
          )

#
TEST_RESU(RESU=_F(NUME_ORDRE=1,
                  RESULTAT=LINEAI,
                  NOM_CHAM='DEPL',
                  NOEUD='N1157',
                  NOM_CMP='DRZ',
                  VALE_CALC=5.8465777475232E-4,
                  TOLE_MACHINE=6.5099999999999999E-07,
                  CRITERE='RELATIF',
                  ),
          )

#
#
#
#     N1104
###########
#
TEST_RESU(RESU=_F(NUME_ORDRE=1,
                  RESULTAT=LINEAI,
                  NOM_CHAM='DEPL',
                  NOEUD='N1104',
                  NOM_CMP='DX',
                  VALE_CALC=1.2884465139419E-4,
                  TOLE_MACHINE=1.88E-06,
                  CRITERE='RELATIF',
                  ),
          )

#
TEST_RESU(RESU=_F(NUME_ORDRE=1,
                  RESULTAT=LINEAI,
                  NOM_CHAM='DEPL',
                  NOEUD='N1104',
                  NOM_CMP='DY',
                  VALE_CALC=1.0942661081554E-3,
                  TOLE_MACHINE=3.1499999999999999E-06,
                  CRITERE='RELATIF',
                  ),
          )

#
#
TEST_RESU(RESU=_F(NUME_ORDRE=1,
                  RESULTAT=LINEAI,
                  NOM_CHAM='DEPL',
                  NOEUD='N1104',
                  NOM_CMP='DZ',
                  VALE_CALC=0.0,
                  CRITERE='ABSOLU',
                  ),
          )

#
TEST_RESU(RESU=_F(NUME_ORDRE=1,
                  RESULTAT=LINEAI,
                  NOM_CHAM='DEPL',
                  NOEUD='N1104',
                  NOM_CMP='DRX',
                  VALE_CALC=0.0,
                  CRITERE='ABSOLU',
                  ),
          )

#
TEST_RESU(RESU=_F(NUME_ORDRE=1,
                  RESULTAT=LINEAI,
                  NOM_CHAM='DEPL',
                  NOEUD='N1104',
                  NOM_CMP='DRY',
                  VALE_CALC=0.0,
                  CRITERE='ABSOLU',
                  ),
          )

#
TEST_RESU(RESU=_F(NUME_ORDRE=1,
                  RESULTAT=LINEAI,
                  NOM_CHAM='DEPL',
                  NOEUD='N1104',
                  NOM_CMP='DRZ',
                  VALE_CALC=6.8174063698091E-4,
                  TOLE_MACHINE=5.8100000000000003E-07,
                  CRITERE='RELATIF',
                  ),
          )

#
#
#     N1109
###########
#
TEST_RESU(RESU=_F(NUME_ORDRE=1,
                  RESULTAT=LINEAI,
                  NOM_CHAM='DEPL',
                  NOEUD='N1109',
                  NOM_CMP='DX',
                  VALE_CALC=4.0184624841384E-4,
                  TOLE_MACHINE=1.61E-07,
                  CRITERE='RELATIF',
                  ),
          )

#
TEST_RESU(RESU=_F(NUME_ORDRE=1,
                  RESULTAT=LINEAI,
                  NOM_CHAM='DEPL',
                  NOEUD='N1109',
                  NOM_CMP='DY',
                  VALE_CALC=1.0842967853686E-3,
                  TOLE_MACHINE=2.92E-06,
                  CRITERE='RELATIF',
                  ),
          )

#
TEST_RESU(RESU=_F(NUME_ORDRE=1,
                  RESULTAT=LINEAI,
                  NOM_CHAM='DEPL',
                  NOEUD='N1109',
                  NOM_CMP='DZ',
                  VALE_CALC=6.3460688147309E-06,
                  TOLE_MACHINE=8.6999999999999998E-08,
                  CRITERE='RELATIF',
                  ),
          )

#
TEST_RESU(RESU=_F(NUME_ORDRE=1,
                  RESULTAT=LINEAI,
                  NOM_CHAM='DEPL',
                  NOEUD='N1109',
                  NOM_CMP='DRX',
                  VALE_CALC=-8.0697657849211E-06,
                  TOLE_MACHINE=7.7799999999999995E-08,
                  CRITERE='RELATIF',
                  ),
          )

#
TEST_RESU(RESU=_F(NUME_ORDRE=1,
                  RESULTAT=LINEAI,
                  NOM_CHAM='DEPL',
                  NOEUD='N1109',
                  NOM_CMP='DRY',
                  VALE_CALC=-4.8518675390296E-05,
                  TOLE_MACHINE=5.4499999999999996E-07,
                  CRITERE='RELATIF',
                  ),
          )

#
TEST_RESU(RESU=_F(NUME_ORDRE=1,
                  RESULTAT=LINEAI,
                  NOM_CHAM='DEPL',
                  NOEUD='N1109',
                  NOM_CMP='DRZ',
                  VALE_CALC=-9.4264584405526E-05,
                  TOLE_MACHINE=6.6300000000000005E-08,
                  CRITERE='RELATIF',
                  ),
          )

#
#
########################################################################
#
#
TEST_RESU(RESU=_F(NUME_ORDRE=1,
                  RESULTAT=LINEAI,
                  NOM_CHAM='DEPL',
                  NOEUD='N1099',
                  NOM_CMP='DX',
                  VALE_CALC=4.0184624841399E-4,
                  TOLE_MACHINE=1.61E-07,
                  CRITERE='RELATIF',
                  ),
          )

#

TEST_RESU(RESU=_F(NUME_ORDRE=1,
                  RESULTAT=LINEAI,
                  NOM_CHAM='DEPL',
                  NOEUD='N1099',
                  NOM_CMP='DY',
                  VALE_CALC=1.0842967853685E-3,
                  TOLE_MACHINE=2.92E-06,
                  CRITERE='RELATIF',
                  ),
          )

#
TEST_RESU(RESU=_F(NUME_ORDRE=1,
                  RESULTAT=LINEAI,
                  NOM_CHAM='DEPL',
                  NOEUD='N1099',
                  NOM_CMP='DZ',
                  VALE_CALC=-6.3460688156113E-06,
                  TOLE_MACHINE=8.6900000000000004E-08,
                  CRITERE='RELATIF',
                  ),
          )

#
TEST_RESU(RESU=_F(NUME_ORDRE=1,
                  RESULTAT=LINEAI,
                  NOM_CHAM='DEPL',
                  NOEUD='N1099',
                  NOM_CMP='DRX',
                  VALE_CALC=8.0697657848423E-06,
                  TOLE_MACHINE=7.7799999999999995E-08,
                  CRITERE='RELATIF',
                  ),
          )

#
TEST_RESU(RESU=_F(NUME_ORDRE=1,
                  RESULTAT=LINEAI,
                  NOM_CHAM='DEPL',
                  NOEUD='N1099',
                  NOM_CMP='DRY',
                  VALE_CALC=4.8518675390613E-05,
                  TOLE_MACHINE=5.3499999999999996E-07,
                  CRITERE='RELATIF',
                  ),
          )

#
TEST_RESU(RESU=_F(NUME_ORDRE=1,
                  RESULTAT=LINEAI,
                  NOM_CHAM='DEPL',
                  NOEUD='N1099',
                  NOM_CMP='DRZ',
                  VALE_CALC=-9.4264584407556E-05,
                  TOLE_MACHINE=6.6300000000000005E-08,
                  CRITERE='RELATIF',
                  ),
          )

#
#
#
#
#            D E C O U P A G E    T E M P O R E L
########################################################################
#
#
#



FONCT=DEFI_FONCTION(   NOM_PARA='INST',
                      VALE=( 0., 0., 1., 1., ) )

#
#
#

LI1PAS=DEFI_LIST_REEL(DEBUT=0.,
               INTERVALLE=_F( JUSQU_A = 1., NOMBRE = 1)
                        )

LI2PAS=DEFI_LIST_REEL(DEBUT=0.,
               INTERVALLE=_F( JUSQU_A = 1., NOMBRE = 10)
                        )

#
#
#
#
#
#            A N A L Y S E   N O N    LINEAIRE    PLASTICITE
########################################################################
#
#


COQUE1P=STAT_NON_LINE(
                            MODELE=MO,
                        CHAM_MATER=CHMAT,
                         CARA_ELEM=CAREL,
                             EXCIT=_F(
                CHARGE = CHART,
                FONC_MULT = FONCT),
                         COMPORTEMENT=_F(
                RELATION = 'VMIS_ISOT_LINE',
               ),
                         INCREMENT=_F(
                LIST_INST = LI1PAS),
                            NEWTON=_F(
                MATRICE = 'TANGENTE',
                REAC_ITER = 1),
                       CONVERGENCE=_F(
                RESI_GLOB_MAXI = 1.E-3,
                ITER_GLOB_MAXI = 25,
                ARRET = 'OUI')
              )

#
#
########################################################################
#
#
# ON TESTE LE NOMBRE D ITERATION = 2 DE NEWTON SUR LE PAS 1
######################################################################
#
#
TEST_RESU(RESU=_F(NUME_ORDRE=1,
                  PARA='ITER_GLOB',
                  VALE_CALC_I=1,
                  RESULTAT=COQUE1P,
                  CRITERE='ABSOLU',
                  ),
          )

#
#
#
########################################################################
#
##############################
#
#
#
# ON TESTE LES DEPLACEMENTS COQUE1P D UNE MANIERE NON REGRESSIVE
##################################################################
#
#
#
#     N1157
###########
#
#
TEST_RESU(RESU=_F(NUME_ORDRE=1,
                  REFERENCE='NON_DEFINI',
                  RESULTAT=COQUE1P,
                  NOM_CHAM='DEPL',
                  NOEUD='N1157',
                  NOM_CMP='DX',
                  VALE_CALC= 6.5025203842981E-04,
                  VALE_REFE=6.5127100000000003E-4,
                  CRITERE='RELATIF',
                  PRECISION=1.6000000000000001E-3,
                  ),
          )

#
TEST_RESU(RESU=_F(NUME_ORDRE=1,
                  REFERENCE='NON_DEFINI',
                  RESULTAT=COQUE1P,
                  NOM_CHAM='DEPL',
                  NOEUD='N1157',
                  NOM_CMP='DY',
                  VALE_CALC= 1.0793118886056E-03,
                  VALE_REFE=1.08154E-3,
                  CRITERE='RELATIF',
                  PRECISION=2.0899999999999998E-3,
                  ),
          )

#
TEST_RESU(RESU=_F(NUME_ORDRE=1,
                  RESULTAT=COQUE1P,
                  NOM_CHAM='DEPL',
                  NOEUD='N1157',
                  NOM_CMP='DZ',
                  VALE_CALC=0.0,
                  CRITERE='ABSOLU',
                  ),
          )

#
TEST_RESU(RESU=_F(NUME_ORDRE=1,
                  RESULTAT=COQUE1P,
                  NOM_CHAM='DEPL',
                  NOEUD='N1157',
                  NOM_CMP='DRX',
                  VALE_CALC=0.0,
                  CRITERE='ABSOLU',
                  ),
          )

#
TEST_RESU(RESU=_F(NUME_ORDRE=1,
                  RESULTAT=COQUE1P,
                  NOM_CHAM='DEPL',
                  NOEUD='N1157',
                  NOM_CMP='DRY',
                  VALE_CALC=0.0,
                  CRITERE='ABSOLU',
                  ),
          )

#
TEST_RESU(RESU=_F(NUME_ORDRE=1,
                  REFERENCE='NON_DEFINI',
                  RESULTAT=COQUE1P,
                  NOM_CHAM='DEPL',
                  NOEUD='N1157',
                  NOM_CMP='DRZ',
                  VALE_CALC= 5.8365052455527E-04,
                  VALE_REFE=5.8465500000000001E-4,
                  CRITERE='RELATIF',
                  PRECISION=1.73E-3,
                  ),
          )

#
#
#
#     N1104
###########
#
TEST_RESU(RESU=_F(NUME_ORDRE=1,
                  RESULTAT=COQUE1P,
                  NOM_CHAM='DEPL',
                  NOEUD='N1104',
                  NOM_CMP='DX',
                  VALE_CALC=1.2883E-4,
                  TOLE_MACHINE=2.7999999999999998E-4,
                  CRITERE='RELATIF',
                  ),
          )

#
TEST_RESU(RESU=_F(NUME_ORDRE=1,
                  REFERENCE='NON_DEFINI',
                  RESULTAT=COQUE1P,
                  NOM_CHAM='DEPL',
                  NOEUD='N1104',
                  NOM_CMP='DY',
                  VALE_CALC= 1.0920158315531E-03,
                  VALE_REFE=1.09424E-3,
                  CRITERE='RELATIF',
                  PRECISION=2.0600000000000002E-3,
                  ),
          )

#
#
TEST_RESU(RESU=_F(NUME_ORDRE=1,
                  RESULTAT=COQUE1P,
                  NOM_CHAM='DEPL',
                  NOEUD='N1104',
                  NOM_CMP='DZ',
                  VALE_CALC=0.0,
                  CRITERE='ABSOLU',
                  ),
          )

#
TEST_RESU(RESU=_F(NUME_ORDRE=1,
                  RESULTAT=COQUE1P,
                  NOM_CHAM='DEPL',
                  NOEUD='N1104',
                  NOM_CMP='DRX',
                  VALE_CALC=0.0,
                  CRITERE='ABSOLU',
                  ),
          )

#
TEST_RESU(RESU=_F(NUME_ORDRE=1,
                  RESULTAT=COQUE1P,
                  NOM_CHAM='DEPL',
                  NOEUD='N1104',
                  NOM_CMP='DRY',
                  VALE_CALC=0.0,
                  CRITERE='ABSOLU',
                  ),
          )

#
TEST_RESU(RESU=_F(NUME_ORDRE=1,
                  REFERENCE='NON_DEFINI',
                  RESULTAT=COQUE1P,
                  NOM_CHAM='DEPL',
                  NOEUD='N1104',
                  NOM_CMP='DRZ',
                  VALE_CALC= 6.8021767511035E-04,
                  VALE_REFE=6.8174700000000002E-4,
                  CRITERE='RELATIF',
                  PRECISION=2.25E-3,
                  ),
          )

#
#
#     N1109
###########
#
TEST_RESU(RESU=_F(NUME_ORDRE=1,
                  REFERENCE='NON_DEFINI',
                  RESULTAT=COQUE1P,
                  NOM_CHAM='DEPL',
                  NOEUD='N1109',
                  NOM_CMP='DX',
                  VALE_CALC= 4.0125086944126E-04,
                  VALE_REFE=4.01834E-4,
                  CRITERE='RELATIF',
                  PRECISION=1.49E-3,
                  ),
          )

#
TEST_RESU(RESU=_F(NUME_ORDRE=1,
                  REFERENCE='NON_DEFINI',
                  RESULTAT=COQUE1P,
                  NOM_CHAM='DEPL',
                  NOEUD='N1109',
                  NOM_CMP='DY',
                  VALE_CALC= 1.0820519612075E-03,
                  VALE_REFE=1.08427E-3,
                  CRITERE='RELATIF',
                  PRECISION=2.0799999999999998E-3,
                  ),
          )

#
TEST_RESU(RESU=_F(NUME_ORDRE=1,
                  RESULTAT=COQUE1P,
                  NOM_CHAM='DEPL',
                  NOEUD='N1109',
                  NOM_CMP='DZ',
                  VALE_CALC=6.3466000000000004E-06,
                  TOLE_MACHINE=2.2000000000000001E-4,
                  CRITERE='RELATIF',
                  ),
          )

#
TEST_RESU(RESU=_F(NUME_ORDRE=1,
                  REFERENCE='NON_DEFINI',
                  RESULTAT=COQUE1P,
                  NOM_CHAM='DEPL',
                  NOEUD='N1109',
                  NOM_CMP='DRX',
                  VALE_CALC=-8.1005405608309E-06,
                  VALE_REFE=-8.0699200000000001E-06,
                  CRITERE='RELATIF',
                  PRECISION=3.82E-3,
                  ),
          )

#
TEST_RESU(RESU=_F(NUME_ORDRE=1,
                  REFERENCE='NON_DEFINI',
                  RESULTAT=COQUE1P,
                  NOM_CHAM='DEPL',
                  NOEUD='N1109',
                  NOM_CMP='DRY',
                  VALE_CALC=-4.8260396920634E-05,
                  VALE_REFE=-4.8522900000000003E-05,
                  CRITERE='RELATIF',
                  PRECISION=5.4299999999999997E-3,
                  ),
          )

#
TEST_RESU(RESU=_F(NUME_ORDRE=1,
                  REFERENCE='NON_DEFINI',
                  RESULTAT=COQUE1P,
                  NOM_CHAM='DEPL',
                  NOEUD='N1109',
                  NOM_CMP='DRZ',
                  VALE_CALC=-9.4782353077968E-05,
                  VALE_REFE=-9.3984400000000001E-05,
                  CRITERE='RELATIF',
                  PRECISION=1.E-2,
                  ),
          )

#
#
#
#
TEST_RESU(RESU=_F(NUME_ORDRE=1,
                  REFERENCE='NON_DEFINI',
                  RESULTAT=COQUE1P,
                  NOM_CHAM='DEPL',
                  NOEUD='N1099',
                  NOM_CMP='DX',
                  VALE_CALC= 4.0125086944143E-04,
                  VALE_REFE=4.01834E-4,
                  CRITERE='RELATIF',
                  PRECISION=1.49E-3,
                  ),
          )

#

TEST_RESU(RESU=_F(NUME_ORDRE=1,
                  REFERENCE='NON_DEFINI',
                  RESULTAT=COQUE1P,
                  NOM_CHAM='DEPL',
                  NOEUD='N1099',
                  NOM_CMP='DY',
                  VALE_CALC= 1.0820519612075E-03,
                  VALE_REFE=1.08427E-3,
                  CRITERE='RELATIF',
                  PRECISION=2.0799999999999998E-3,
                  ),
          )

#
TEST_RESU(RESU=_F(NUME_ORDRE=1,
                  RESULTAT=COQUE1P,
                  NOM_CHAM='DEPL',
                  NOEUD='N1099',
                  NOM_CMP='DZ',
                  VALE_CALC=-6.3466000000000004E-06,
                  TOLE_MACHINE=2.2000000000000001E-4,
                  CRITERE='RELATIF',
                  ),
          )

#
TEST_RESU(RESU=_F(NUME_ORDRE=1,
                  REFERENCE='NON_DEFINI',
                  RESULTAT=COQUE1P,
                  NOM_CHAM='DEPL',
                  NOEUD='N1099',
                  NOM_CMP='DRX',
                  VALE_CALC= 8.1005405613035E-06,
                  VALE_REFE=8.0699200000000001E-06,
                  CRITERE='RELATIF',
                  PRECISION=3.82E-3,
                  ),
          )

#
TEST_RESU(RESU=_F(NUME_ORDRE=1,
                  REFERENCE='NON_DEFINI',
                  RESULTAT=COQUE1P,
                  NOM_CHAM='DEPL',
                  NOEUD='N1099',
                  NOM_CMP='DRY',
                  VALE_CALC= 4.8260396921092E-05,
                  VALE_REFE=4.8522900000000003E-05,
                  CRITERE='RELATIF',
                  PRECISION=5.4299999999999997E-3,
                  ),
          )

#
TEST_RESU(RESU=_F(NUME_ORDRE=1,
                  REFERENCE='NON_DEFINI',
                  RESULTAT=COQUE1P,
                  NOM_CHAM='DEPL',
                  NOEUD='N1099',
                  NOM_CMP='DRZ',
                  VALE_CALC=-9.478235307658E-05,
                  VALE_REFE=-9.3984400000000001E-05,
                  CRITERE='RELATIF',
                  PRECISION=8.500000000000002E-3,
                  ),
          )

#
#
########################################################################
#
#            A N A L Y S E   N O N    LINEAIRE    GRANDES   ROTATIONS
########################################################################
#
#

COQUE1E=STAT_NON_LINE(
                            MODELE=MO,
                        CHAM_MATER=CHMAT,
                         CARA_ELEM=CAREL,
                             EXCIT=_F(
                CHARGE = CHART,
                FONC_MULT = FONCT),
                         COMPORTEMENT=_F(
                RELATION = 'ELAS',
                DEFORMATION = 'GROT_GDEP',
               ),
                         INCREMENT=_F(
                LIST_INST = LI2PAS),
                            NEWTON=_F(
                MATRICE = 'TANGENTE',
                REAC_ITER = 1),
                       CONVERGENCE=_F(
                RESI_GLOB_MAXI = 1.E-3,
                ITER_GLOB_MAXI = 25,
                ARRET = 'OUI')
              )

########################################################################
#
#
# ON TESTE LE NOMBRE D ITERATION = 4 DE NEWTON SUR LE PAS 1
######################################################################
#
#
TEST_RESU(RESU=_F(NUME_ORDRE=1,
                  PARA='ITER_GLOB',
                  VALE_CALC_I=2,
                  RESULTAT=COQUE1E,
                  CRITERE='ABSOLU',
                  ),
          )

#
#
#
########################################################################
#
# ON TESTE LES DEPLACEMENTS COQUE1E D UNE MANIERE NON REGRESSIVE
##################################################################
#
#
#
#
#     N1157
###########
#
#
TEST_RESU(RESU=_F(NUME_ORDRE=10,
                  REFERENCE='NON_DEFINI',
                  RESULTAT=COQUE1E,
                  NOM_CHAM='DEPL',
                  NOEUD='N1157',
                  NOM_CMP='DX',
                  VALE_CALC= 6.5024543516235E-04,
                  VALE_REFE=6.5127100000000003E-4,
                  CRITERE='RELATIF',
                  PRECISION=1.6100000000000001E-3,
                  ),
          )

#
TEST_RESU(RESU=_F(NUME_ORDRE=10,
                  REFERENCE='NON_DEFINI',
                  RESULTAT=COQUE1E,
                  NOM_CHAM='DEPL',
                  NOEUD='N1157',
                  NOM_CMP='DY',
                  VALE_CALC= 1.0798009639296E-03,
                  VALE_REFE=1.08154E-3,
                  CRITERE='RELATIF',
                  PRECISION=1.64E-3,
                  ),
          )

#
TEST_RESU(RESU=_F(NUME_ORDRE=10,
                  RESULTAT=COQUE1E,
                  NOM_CHAM='DEPL',
                  NOEUD='N1157',
                  NOM_CMP='DZ',
                  VALE_CALC=0.0,
                  CRITERE='ABSOLU',
                  ),
          )

#
TEST_RESU(RESU=_F(NUME_ORDRE=10,
                  RESULTAT=COQUE1E,
                  NOM_CHAM='DEPL',
                  NOEUD='N1157',
                  NOM_CMP='DRX',
                  VALE_CALC=0.0,
                  CRITERE='ABSOLU',
                  ),
          )

#
TEST_RESU(RESU=_F(NUME_ORDRE=10,
                  RESULTAT=COQUE1E,
                  NOM_CHAM='DEPL',
                  NOEUD='N1157',
                  NOM_CMP='DRY',
                  VALE_CALC=0.0,
                  CRITERE='ABSOLU',
                  ),
          )

#
TEST_RESU(RESU=_F(NUME_ORDRE=10,
                  REFERENCE='NON_DEFINI',
                  RESULTAT=COQUE1E,
                  NOM_CHAM='DEPL',
                  NOEUD='N1157',
                  NOM_CMP='DRZ',
                  VALE_CALC= 5.831116501891E-04,
                  VALE_REFE=5.8465500000000001E-4,
                  CRITERE='RELATIF',
                  PRECISION=2.65E-3,
                  ),
          )

#
#
#
#     N1104
###########
#
TEST_RESU(RESU=_F(NUME_ORDRE=10,
                  REFERENCE='NON_DEFINI',
                  RESULTAT=COQUE1E,
                  NOM_CHAM='DEPL',
                  NOEUD='N1104',
                  NOM_CMP='DX',
                  VALE_CALC= 1.2849320738598E-04,
                  VALE_REFE=1.2883E-4,
                  CRITERE='RELATIF',
                  PRECISION=2.7399999999999998E-3,
                  ),
          )

#
TEST_RESU(RESU=_F(NUME_ORDRE=10,
                  REFERENCE='NON_DEFINI',
                  RESULTAT=COQUE1E,
                  NOM_CHAM='DEPL',
                  NOEUD='N1104',
                  NOM_CMP='DY',
                  VALE_CALC= 1.0930144179202E-03,
                  VALE_REFE=1.09424E-3,
                  CRITERE='RELATIF',
                  PRECISION=1.15E-3,
                  ),
          )

#
#
TEST_RESU(RESU=_F(NUME_ORDRE=10,
                  RESULTAT=COQUE1E,
                  NOM_CHAM='DEPL',
                  NOEUD='N1104',
                  NOM_CMP='DZ',
                  VALE_CALC=0.0,
                  CRITERE='ABSOLU',
                  ),
          )

#
TEST_RESU(RESU=_F(NUME_ORDRE=10,
                  RESULTAT=COQUE1E,
                  NOM_CHAM='DEPL',
                  NOEUD='N1104',
                  NOM_CMP='DRX',
                  VALE_CALC=0.0,
                  CRITERE='ABSOLU',
                  ),
          )

#
TEST_RESU(RESU=_F(NUME_ORDRE=10,
                  RESULTAT=COQUE1E,
                  NOM_CHAM='DEPL',
                  NOEUD='N1104',
                  NOM_CMP='DRY',
                  VALE_CALC=0.0,
                  CRITERE='ABSOLU',
                  ),
          )

#
TEST_RESU(RESU=_F(NUME_ORDRE=10,
                  RESULTAT=COQUE1E,
                  NOM_CHAM='DEPL',
                  NOEUD='N1104',
                  NOM_CMP='DRZ',
                  VALE_CALC=6.8160303115198E-4,
                  TOLE_MACHINE=2.1000000000000001E-4,
                  CRITERE='RELATIF',
                  ),
          )

#
#
#     N1109
###########
#
TEST_RESU(RESU=_F(NUME_ORDRE=10,
                  REFERENCE='NON_DEFINI',
                  RESULTAT=COQUE1E,
                  NOM_CHAM='DEPL',
                  NOEUD='N1109',
                  NOM_CMP='DX',
                  VALE_CALC= 4.0117229551727E-04,
                  VALE_REFE=4.01834E-4,
                  CRITERE='RELATIF',
                  PRECISION=1.6900000000000001E-3,
                  ),
          )

#
TEST_RESU(RESU=_F(NUME_ORDRE=10,
                  REFERENCE='NON_DEFINI',
                  RESULTAT=COQUE1E,
                  NOM_CHAM='DEPL',
                  NOEUD='N1109',
                  NOM_CMP='DY',
                  VALE_CALC= 1.082792453726E-03,
                  VALE_REFE=1.08427E-3,
                  CRITERE='RELATIF',
                  PRECISION=1.39E-3,
                  ),
          )

#
TEST_RESU(RESU=_F(NUME_ORDRE=10,
                  REFERENCE='NON_DEFINI',
                  RESULTAT=COQUE1E,
                  NOM_CHAM='DEPL',
                  NOEUD='N1109',
                  NOM_CMP='DZ',
                  VALE_CALC= 6.6251614639917E-06,
                  VALE_REFE=6.3466000000000004E-06,
                  CRITERE='RELATIF',
                  PRECISION=0.043979999999999998,
                  ),
          )

#
TEST_RESU(RESU=_F(NUME_ORDRE=10,
                  REFERENCE='NON_DEFINI',
                  RESULTAT=COQUE1E,
                  NOM_CHAM='DEPL',
                  NOEUD='N1109',
                  NOM_CMP='DRX',
                  VALE_CALC=-8.035698567392E-06,
                  VALE_REFE=-8.0699200000000001E-06,
                  CRITERE='RELATIF',
                  PRECISION=4.2500000000000003E-3,
                  ),
          )

#
TEST_RESU(RESU=_F(NUME_ORDRE=10,
                  REFERENCE='NON_DEFINI',
                  RESULTAT=COQUE1E,
                  NOM_CHAM='DEPL',
                  NOEUD='N1109',
                  NOM_CMP='DRY',
                  VALE_CALC=-4.8792450057481E-05,
                  VALE_REFE=-4.8522900000000003E-05,
                  CRITERE='RELATIF',
                  PRECISION=5.6499999999999996E-3,
                  ),
          )

#
TEST_RESU(RESU=_F(NUME_ORDRE=10,
                  REFERENCE='NON_DEFINI',
                  RESULTAT=COQUE1E,
                  NOM_CHAM='DEPL',
                  NOEUD='N1109',
                  NOM_CMP='DRZ',
                  VALE_CALC=-9.5631385769219E-05,
                  VALE_REFE=-9.3984400000000001E-05,
                  CRITERE='RELATIF',
                  PRECISION=0.018,
                  ),
          )

#
#
#
#
#
TEST_RESU(RESU=_F(NUME_ORDRE=10,
                  REFERENCE='NON_DEFINI',
                  RESULTAT=COQUE1E,
                  NOM_CHAM='DEPL',
                  NOEUD='N1099',
                  NOM_CMP='DX',
                  VALE_CALC= 4.0117229551727E-04,
                  VALE_REFE=4.01834E-4,
                  CRITERE='RELATIF',
                  PRECISION=1.6900000000000001E-3,
                  ),
          )

#

TEST_RESU(RESU=_F(NUME_ORDRE=10,
                  REFERENCE='NON_DEFINI',
                  RESULTAT=COQUE1E,
                  NOM_CHAM='DEPL',
                  NOEUD='N1099',
                  NOM_CMP='DY',
                  VALE_CALC= 1.082792453726E-03,
                  VALE_REFE=1.08427E-3,
                  CRITERE='RELATIF',
                  PRECISION=1.39E-3,
                  ),
          )

#
TEST_RESU(RESU=_F(NUME_ORDRE=10,
                  REFERENCE='NON_DEFINI',
                  RESULTAT=COQUE1E,
                  NOM_CHAM='DEPL',
                  NOEUD='N1099',
                  NOM_CMP='DZ',
                  VALE_CALC=-6.6251614639769E-06,
                  VALE_REFE=-6.3466000000000004E-06,
                  CRITERE='RELATIF',
                  PRECISION=0.043979999999999998,
                  ),
          )

#
TEST_RESU(RESU=_F(NUME_ORDRE=10,
                  REFERENCE='NON_DEFINI',
                  RESULTAT=COQUE1E,
                  NOM_CHAM='DEPL',
                  NOEUD='N1099',
                  NOM_CMP='DRX',
                  VALE_CALC= 8.035698567363E-06,
                  VALE_REFE=8.0699200000000001E-06,
                  CRITERE='RELATIF',
                  PRECISION=4.2500000000000003E-3,
                  ),
          )

#
TEST_RESU(RESU=_F(NUME_ORDRE=10,
                  REFERENCE='NON_DEFINI',
                  RESULTAT=COQUE1E,
                  NOM_CHAM='DEPL',
                  NOEUD='N1099',
                  NOM_CMP='DRY',
                  VALE_CALC= 4.8792450057482E-05,
                  VALE_REFE=4.8522900000000003E-05,
                  CRITERE='RELATIF',
                  PRECISION=5.6499999999999996E-3,
                  ),
          )

#
TEST_RESU(RESU=_F(NUME_ORDRE=10,
                  REFERENCE='NON_DEFINI',
                  RESULTAT=COQUE1E,
                  NOM_CHAM='DEPL',
                  NOEUD='N1099',
                  NOM_CMP='DRZ',
                  VALE_CALC=-9.5631385769251E-05,
                  VALE_REFE=-9.3984400000000001E-05,
                  CRITERE='RELATIF',
                  PRECISION=0.018,
                  ),
          )

#
#
#
FIN( )
#
