# ======================================================================
# COPYRIGHT (C) 1991 - 2016  EDF R&D                  WWW.CODE-ASTER.ORG
# THIS PROGRAM IS FREE SOFTWARE; YOU CAN REDISTRIBUTE IT AND/OR MODIFY
# IT UNDER THE TERMS OF THE GNU GENERAL PUBLIC LICENSE AS PUBLISHED BY
# THE FREE SOFTWARE FOUNDATION; EITHER VERSION 2 OF THE LICENSE, OR
# (AT YOUR OPTION) ANY LATER VERSION.
#
# THIS PROGRAM IS DISTRIBUTED IN THE HOPE THAT IT WILL BE USEFUL, BUT
# WITHOUT ANY WARRANTY; WITHOUT EVEN THE IMPLIED WARRANTY OF
# MERCHANTABILITY OR FITNESS FOR A PARTICULAR PURPOSE. SEE THE GNU
# GENERAL PUBLIC LICENSE FOR MORE DETAILS.
#
# YOU SHOULD HAVE RECEIVED A COPY OF THE GNU GENERAL PUBLIC LICENSE
# ALONG WITH THIS PROGRAM; IF NOT, WRITE TO EDF R&D CODE_ASTER,
#    1 AVENUE DU GENERAL DE GAULLE, 92141 CLAMART CEDEX, FRANCE.
# ======================================================================
#
# MODELISATION DKT : TRIA3

DEBUT(CODE=_F(NIV_PUB_WEB='INTERNET'),DEBUG=_F(SDVERI='OUI'))

MAIL=LIRE_MAILLAGE(VERI_MAIL=_F(VERIF='OUI'),FORMAT='MED',);

MA=CREA_MAILLAGE(MAILLAGE=MAIL,
                 QUAD_LINE=_F(TOUT='OUI',),);

MA=DEFI_GROUP(reuse =MA,
              MAILLAGE=MA,
              CREA_GROUP_NO=_F(GROUP_MA='ENCASTR',),);

MO1=AFFE_MODELE(AFFE=_F(TOUT='OUI',
                        PHENOMENE='MECANIQUE',
                        MODELISATION='DKT',),
                MAILLAGE=MA,);

MAT=DEFI_MATERIAU(ELAS=_F(NU=0.0,
                          ALPHA=0.0,
                          E=1.2000000E7,),);

CHMAT1=AFFE_MATERIAU(AFFE=_F(MATER=MAT,
                             TOUT='OUI',),
                     MAILLAGE=MA,);

CHA1=AFFE_CHAR_MECA(DDL_IMPO=_F(DZ=0.0,
                                DX=0.0,
                                DY=0.0,
                                DRZ=0.0,
                                DRX=0.0,
                                DRY=0.0,
                                GROUP_NO='ENCASTR'),
                    MODELE=MO1,);

CHA2=AFFE_CHAR_MECA(MODELE=MO1,
                    FORCE_ARETE=_F(MY=-100.0,
                                   GROUP_MA='LIBRE',),);

CARA1=AFFE_CARA_ELEM(MODELE=MO1,
                     COQUE=_F(GROUP_MA='TOUT',
                              COEF_RIGI_DRZ=1.E-3,
                              EPAIS=0.1,),);

L_INST=DEFI_LIST_REEL(INTERVALLE=(
                           _F(JUSQU_A=1.5,
                               NOMBRE=10,),
                           _F(JUSQU_A=2.1,
                               NOMBRE=12,),
                           _F(JUSQU_A=2.2,
                               NOMBRE=2,),
                           _F(JUSQU_A=6,
                              NOMBRE=76,),
                                       ),
                                 DEBUT=0.0,);

D_FONC=DEFI_FONCTION(NOM_PARA='INST',
                     VALE=(0.0,0.0,10.0,10.0),);

NONLI=STAT_NON_LINE(CHAM_MATER=CHMAT1,
                    MODELE=MO1,
                    COMPORTEMENT=_F(DEFORMATION='GROT_GDEP',
                                 RELATION='ELAS',),
                    CONVERGENCE=_F(ITER_GLOB_MAXI=100,
                                   RESI_GLOB_RELA=1.E-06,),
                    INCREMENT=_F(LIST_INST=L_INST,
                                 INST_FIN=5.0
                                 ),
                    CARA_ELEM=CARA1,
                    NEWTON=_F(REAC_ITER=1,
                              MATRICE='TANGENTE',),
                    EXCIT=(_F(CHARGE=CHA1,),
                           _F(CHARGE=CHA2,
                              FONC_MULT=D_FONC,),),);


DRY_P2=RECU_FONCTION(  RESULTAT=NONLI,    NOM_CHAM='DEPL',
                   GROUP_NO='P2',    NOM_CMP='DRY'  )

DX_P2=RECU_FONCTION(  RESULTAT=NONLI,    NOM_CHAM='DEPL',
                   GROUP_NO='P2',    NOM_CMP='DX'  )

DZ_P2=RECU_FONCTION(  RESULTAT=NONLI,    NOM_CHAM='DEPL',
                   GROUP_NO='P2',    NOM_CMP='DZ'  )

IMPR_FONCTION(COURBE=(_F(FONCTION=DRY_P2),
                      _F(FONCTION=DX_P2),
                      _F(FONCTION=DZ_P2),))

# ROTATION :  DRY
# ---------------

TEST_RESU(RESU=_F(GROUP_NO='P2',
                  INST=0.6,
                  REFERENCE='ANALYTIQUE',
                  RESULTAT=NONLI,
                  NOM_CHAM='DEPL',
                  NOM_CMP='DRY',
                  VALE_CALC=-0.59999997033179,
                  VALE_REFE=-0.6,
                  CRITERE='RELATIF',
                  PRECISION=1.E-4,))

TEST_RESU(RESU=_F(GROUP_NO='P2',
                  INST=1.2,
                  REFERENCE='ANALYTIQUE',
                  RESULTAT=NONLI,
                  NOM_CHAM='DEPL',
                  NOM_CMP='DRY',
                  VALE_CALC=-1.2000000010024,
                  VALE_REFE=-1.2,
                  CRITERE='RELATIF',
                  PRECISION=1.E-4,))

TEST_RESU(RESU=_F(GROUP_NO='P2',
                  INST=1.8,
                  REFERENCE='ANALYTIQUE',
                  RESULTAT=NONLI,
                  NOM_CHAM='DEPL',
                  NOM_CMP='DRY',
                  VALE_CALC=-1.7999999968003,
                  VALE_REFE=-1.8,
                  CRITERE='RELATIF',
                  PRECISION=1.E-4,))

TEST_RESU(RESU=_F(GROUP_NO='P2',
                  INST=3.,
                  REFERENCE='ANALYTIQUE',
                  RESULTAT=NONLI,
                  NOM_CHAM='DEPL',
                  NOM_CMP='DRY',
                  VALE_CALC=-3.0000000537024,
                  VALE_REFE=-3.,
                  CRITERE='RELATIF',
                  PRECISION=1.E-4,))

TEST_RESU(RESU=_F(GROUP_NO='P2',
                  INST=4.,
                  REFERENCE='ANALYTIQUE',
                  RESULTAT=NONLI,
                  NOM_CHAM='DEPL',
                  NOM_CMP='DRY',
                  VALE_CALC=-4.0000002373092,
                  VALE_REFE=-4.,
                  CRITERE='RELATIF',
                  PRECISION=1.E-4,))

TEST_RESU(RESU=_F(GROUP_NO='P2',
                  INST=5.,
                  REFERENCE='ANALYTIQUE',
                  RESULTAT=NONLI,
                  NOM_CHAM='DEPL',
                  NOM_CMP='DRY',
                  VALE_CALC=-5.0000019332921,
                  VALE_REFE=-5.,
                  CRITERE='RELATIF',
                  PRECISION=1.E-4,))

# DEPLACEMENT :  DX
#------------------

TEST_RESU(RESU=_F(GROUP_NO='P2',
                  INST=0.6,
                  REFERENCE='ANALYTIQUE',
                  RESULTAT=NONLI,
                  NOM_CHAM='DEPL',
                  NOM_CMP='DX',
                  VALE_CALC=-0.59046737836600,
                  VALE_REFE=-0.58929211,
                  CRITERE='RELATIF',
                  PRECISION=2.5E-3,))

TEST_RESU(RESU=_F(GROUP_NO='P2',
                  INST=1.2,
                  REFERENCE='ANALYTIQUE',
                  RESULTAT=NONLI,
                  NOM_CHAM='DEPL',
                  NOM_CMP='DX',
                  VALE_CALC=-2.2374054965474,
                  VALE_REFE=-2.23300762,
                  CRITERE='RELATIF',
                  PRECISION=2.5E-3,))

TEST_RESU(RESU=_F(GROUP_NO='P2',
                  INST=1.8,
                  REFERENCE='ANALYTIQUE',
                  RESULTAT=NONLI,
                  NOM_CHAM='DEPL',
                  NOM_CMP='DX',
                  VALE_CALC=-4.5961174325328,
                  VALE_REFE=-4.58973538,
                  CRITERE='RELATIF',
                  PRECISION=.5E-2,))

TEST_RESU(RESU=_F(GROUP_NO='P2',
                  INST=3.,
                  REFERENCE='ANALYTIQUE',
                  RESULTAT=NONLI,
                  NOM_CHAM='DEPL',
                  NOM_CMP='DX',
                  VALE_CALC=-9.5370842559986,
                  VALE_REFE=-9.52959997,
                  CRITERE='RELATIF',
                  PRECISION=1.E-3,))

TEST_RESU(RESU=_F(GROUP_NO='P2',
                  INST=4.,
                  REFERENCE='ANALYTIQUE',
                  RESULTAT=NONLI,
                  NOM_CHAM='DEPL',
                  NOM_CMP='DX',
                  VALE_CALC=-11.903293897975,
                  VALE_REFE=-11.89200624,
                  CRITERE='RELATIF',
                  PRECISION=1.5E-3,))

TEST_RESU(RESU=_F(GROUP_NO='P2',
                  INST=5.,
                  REFERENCE='ANALYTIQUE',
                  RESULTAT=NONLI,
                  NOM_CHAM='DEPL',
                  NOM_CMP='DX',
                  VALE_CALC=-11.927379429193,
                  VALE_REFE=-11.91784855,
                  CRITERE='RELATIF',
                  PRECISION=1.E-3,))

# DEPLACEMENT :  DZ
#------------------

TEST_RESU(RESU=_F(GROUP_NO='P2',
                  INST=0.59999999999999998,
                  REFERENCE='ANALYTIQUE',
                  RESULTAT=NONLI,
                  NOM_CHAM='DEPL',
                  NOM_CMP='DZ',
                  VALE_CALC=2.9164858902199,
                  VALE_REFE=2.91107308,
                  CRITERE='RELATIF',
                  PRECISION=0.25E-2,))

TEST_RESU(RESU=_F(GROUP_NO='P2',
                  INST=1.2,
                  REFERENCE='ANALYTIQUE',
                  RESULTAT=NONLI,
                  NOM_CHAM='DEPL',
                  NOM_CMP='DZ',
                  VALE_CALC=5.3232196414448,
                  VALE_REFE=5.31368538,
                  CRITERE='RELATIF',
                  PRECISION=0.25E-2,))

TEST_RESU(RESU=_F(GROUP_NO='P2',
                  INST=1.8,
                  REFERENCE='ANALYTIQUE',
                  RESULTAT=NONLI,
                  NOM_CHAM='DEPL',
                  NOM_CMP='DZ',
                  VALE_CALC=6.8287749962707,
                  VALE_REFE=6.81778941,
                  CRITERE='RELATIF',
                  PRECISION=0.25E-2,))

TEST_RESU(RESU=_F(GROUP_NO='P2',
                  INST=3.,
                  REFERENCE='ANALYTIQUE',
                  RESULTAT=NONLI,
                  NOM_CHAM='DEPL',
                  NOM_CMP='DZ',
                  VALE_CALC=6.6478169094268,
                  VALE_REFE=6.63330832,
                  CRITERE='RELATIF',
                  PRECISION=0.25E-2,))

TEST_RESU(RESU=_F(GROUP_NO='P2',
                  INST=4.,
                  REFERENCE='ANALYTIQUE',
                  RESULTAT=NONLI,
                  NOM_CHAM='DEPL',
                  NOM_CMP='DZ',
                  VALE_CALC=4.1482280941826,
                  VALE_REFE=4.13410905,
                  CRITERE='RELATIF',
                  PRECISION=0.5E-2,))

TEST_RESU(RESU=_F(GROUP_NO='P2',
                  INST=5.0,
                  REFERENCE='ANALYTIQUE',
                  RESULTAT=NONLI,
                  NOM_CHAM='DEPL',
                  NOM_CMP='DZ',
                  VALE_CALC=1.4401135084209,
                  VALE_REFE=1.43267563,
                  CRITERE='RELATIF',
                  PRECISION=0.8E-2,))

FIN();
