# MODIF  DATE 05/03/2012   AUTEUR PELLET J.PELLET 
# TITRE    : PATIN GLISSANT SUR UN PLAN RIGIDE
# ssnv503i.para = tps_job 80 mem_job 32Mo ncpus 1 liste_test V
#            CONFIGURATION MANAGEMENT OF EDF VERSION
# ======================================================================
# COPYRIGHT (C) 1991 - 2012  EDF R&D                  WWW.CODE-ASTER.ORG
# THIS PROGRAM IS FREE SOFTWARE; YOU CAN REDISTRIBUTE IT AND/OR MODIFY
# IT UNDER THE TERMS OF THE GNU GENERAL PUBLIC LICENSE AS PUBLISHED BY
# THE FREE SOFTWARE FOUNDATION; EITHER VERSION 2 OF THE LICENSE, OR
# (AT YOUR OPTION) ANY LATER VERSION.
#
# THIS PROGRAM IS DISTRIBUTED IN THE HOPE THAT IT WILL BE USEFUL, BUT
# WITHOUT ANY WARRANTY; WITHOUT EVEN THE IMPLIED WARRANTY OF
# MERCHANTABILITY OR FITNESS FOR A PARTICULAR PURPOSE. SEE THE GNU
# GENERAL PUBLIC LICENSE FOR MORE DETAILS.
#
# YOU SHOULD HAVE RECEIVED A COPY OF THE GNU GENERAL PUBLIC LICENSE
# ALONG WITH THIS PROGRAM; IF NOT, WRITE TO EDF R&D CODE_ASTER,
#    1 AVENUE DU GENERAL DE GAULLE, 92141 CLAMART CEDEX, FRANCE.
# ======================================================================
#
# CAS TEST SSNV503I
# - MODELISATION 3D
# - METHODE CONTINUE POUR LE CONTACT FROTTEMENT
# - JEU DEFINI DE MAIERE GEOMETRIQUE


DEBUT(CODE=_F(NOM='SSNV503I',NIV_PUB_WEB='INTERNET',),DEBUG=_F(SDVERI='OUI'))

MAIL=LIRE_MAILLAGE(FORMAT='MED',VERI_MAIL=_F(VERIF='OUI',),);

MAIL=DEFI_GROUP(reuse =MAIL,
                MAILLAGE=MAIL,
                CREA_GROUP_MA=(_F(NOM='RES_LAT',
                                  GROUP_MA='LR',),
                               _F(NOM='RES_FOND',
                                  GROUP_MA='LF',),
                               _F(NOM='RES_HAUT',
                                  GROUP_MA='LP',),),
                CREA_GROUP_NO=_F(TOUT_GROUP_MA='OUI'),);

MO=AFFE_MODELE(MAILLAGE=MAIL,
               VERIF='MAILLE',
               AFFE=(_F(TOUT='OUI',
                        PHENOMENE='MECANIQUE',
                        MODELISATION='3D',),
                     _F(GROUP_MA='RES_LAT',
                        PHENOMENE='MECANIQUE',
                        MODELISATION='DIS_T',),
                     _F(GROUP_MA='RES_FOND',
                        PHENOMENE='MECANIQUE',
                        MODELISATION='DIS_T',),
                     _F(GROUP_MA='RES_HAUT',
                        PHENOMENE='MECANIQUE',
                        MODELISATION='DIS_T',),),);

MAIL=MODI_MAILLAGE(reuse =MAIL,
                   MAILLAGE=MAIL,
                   ORIE_PEAU_3D=_F(GROUP_MA=('SMAI','SESC','FACESUP','FACELAT'),),
                   );

#---------------------------------------------------------------------
#                         CARACTERISTIQUES ELEMENTAIRES
#---------------------------------------------------------------------

CARA=AFFE_CARA_ELEM(MODELE=MO,
                    DISCRET=(_F(GROUP_MA=('RES_FOND','RES_HAUT'),
                                REPERE='LOCAL',
                                CARA='K_T_D_L',
                                VALE=(1.E0,0.0,0.0),),
                             _F(GROUP_MA='RES_LAT',
                                REPERE='LOCAL',
                                CARA='K_T_D_L',
                                VALE=(2.E1,0.0,0.0),),),);

#---------------------------------------------------------------------
#                         CARACTERISTIQUES MATERIAUX
#---------------------------------------------------------------------

MPATIN=DEFI_MATERIAU(ELAS=_F(E=2.10000E6,
                             NU=0.0,),);

MBATI=DEFI_MATERIAU(ELAS=_F(E=1.E5,
                            NU=0.0,),);

CM=AFFE_MATERIAU(MAILLAGE=MAIL,
                 MODELE=MO,
                 AFFE=(_F(GROUP_MA='PATIN',
                          MATER=MPATIN,),
                       _F(GROUP_MA='BATI',
                          MATER=MBATI,),
                          ),);

#---------------------------------------------------------------------
#                         CHARGEMENTS
#---------------------------------------------------------------------

COND_LIM=AFFE_CHAR_MECA(MODELE=MO,
                        DDL_IMPO=(_F(GROUP_NO='BATI',
                                     DX=0.0,DY=0.0,DZ=0.0,),
                                  _F(GROUP_NO=('R1','R2','R3','R4',
                                               'F1','F2','F3','F4',
                                               'P1','P2','P3','P4'),
                                     DX=0.0,DY=0.0,DZ=0.0),
                                  ),);

# CHARGEMENT 1 : APPLICATION DE LA PRESSION NORMALE

PNOR=AFFE_CHAR_MECA(MODELE=MO,
                    PRES_REP=_F(GROUP_MA='FACESUP',
                                PRES=300.0,),);

# CHARGEMENT 2 : APPLICATION DE LA PRESSION NORMALE ET DE LA PRESSION
#                  TANGENTIELLE (PT=0.3*PN*0.99)

PTAN_99=AFFE_CHAR_MECA(MODELE=MO,
                       PRES_REP=_F(GROUP_MA='FACELAT',
                                   PRES=178.19999999999999,),);

# CHARGEMENT 3 : APPLICATION DE LA PRESSION NORMALE ET DE LA PRESSION
#                  TANGENTIELLE (PT=0.3*PN*1.01)

PTAN_101=AFFE_CHAR_MECA(MODELE=MO,
                        PRES_REP=_F(GROUP_MA='FACELAT',
                                    PRES=181.80000000000001,),);

# DEFINITION DU CONTACT

CTAC = DEFI_CONTACT(MODELE         = MO,
                    FORMULATION    = 'CONTINUE',
                    FROTTEMENT     = 'COULOMB',
                    REAC_GEOM      = 'CONTROLE',
                    NB_ITER_GEOM   = 3,
                    ZONE =(
                           _F(
                             GROUP_MA_MAIT = 'SMAI',
                             GROUP_MA_ESCL = 'SESC',
                             APPARIEMENT   = 'MAIT_ESCL',
                             COULOMB       = 0.3,
                             ),
                          ),
                   );



#---------------------------------------------------------------------
#                         RESOLUTION
#---------------------------------------------------------------------

RAMP1=DEFI_FONCTION(NOM_PARA='INST',
                    VALE=(0.0,0.0,
                          0.5,1.0,
                          1.0,1.0),
                    PROL_DROITE='LINEAIRE',
                    PROL_GAUCHE='LINEAIRE',);

RAMP2=DEFI_FONCTION(NOM_PARA='INST',
                    VALE=(0.0,0.0,
                          0.5,0.0,
                          1.0,1.0),
                    PROL_DROITE='LINEAIRE',
                    PROL_GAUCHE='LINEAIRE',);

L_INST=DEFI_LIST_REEL(DEBUT=0.0,
                      INTERVALLE=_F(JUSQU_A=1.0,
                                    NOMBRE=2,),);

# CHARGEMENT 1
U_NOR=STAT_NON_LINE(MODELE=MO,
                    CHAM_MATER=CM,
                    CARA_ELEM=CARA,
                    EXCIT=(_F(CHARGE=PNOR,
                              FONC_MULT=RAMP1,),
                           _F(CHARGE=COND_LIM,),),
                    CONTACT  = CTAC,
                    COMP_INCR=_F(RELATION='ELAS',
                                 TOUT='OUI',),
                    INCREMENT=_F(LIST_INST=L_INST,),
                    SOLVEUR=_F(METHODE='LDLT',
                               RENUM='SANS',),
                    NEWTON=_F(MATRICE='TANGENTE',
                              REAC_ITER=1,),
                    CONVERGENCE=_F(ITER_GLOB_MAXI=30,),
                    INFO=1,);

U_NOR=CALC_CHAMP(reuse =U_NOR,
              RESULTAT=U_NOR,
              FORCE='REAC_NODA',
             );
# CHARGEMENT 2
U_99=STAT_NON_LINE(MODELE=MO,
                   CHAM_MATER=CM,
                   CARA_ELEM=CARA,
                   EXCIT=(_F(CHARGE=PNOR,
                             FONC_MULT=RAMP1,),
                          _F(CHARGE=PTAN_99,
                             FONC_MULT=RAMP2,),
                          _F(CHARGE=COND_LIM,),),
                    CONTACT  = CTAC,
                   COMP_INCR=_F(RELATION='ELAS',
                                TOUT='OUI',),
                   INCREMENT=_F(LIST_INST=L_INST,),
                   NEWTON=_F(MATRICE='TANGENTE',
                             REAC_ITER=1,),
                   SOLVEUR=_F(METHODE='LDLT',
                               RENUM='SANS',),
                   CONVERGENCE=_F(ITER_GLOB_MAXI=1500,),);

U_99=CALC_CHAMP(reuse =U_99,
             RESULTAT=U_99,
             FORCE='REAC_NODA',
            );
# CHARGEMENT 3
U_101=STAT_NON_LINE(MODELE=MO,
                    CHAM_MATER=CM,
                    CARA_ELEM=CARA,
                    EXCIT=(_F(CHARGE=PNOR,
                              FONC_MULT=RAMP1,),
                           _F(CHARGE=PTAN_101,
                              FONC_MULT=RAMP2,),
                           _F(CHARGE=COND_LIM,),),
                    CONTACT  = CTAC,
                    COMP_INCR=_F(RELATION='ELAS',
                                 TOUT='OUI',),
                    INCREMENT=_F(LIST_INST=L_INST,),
                    NEWTON=_F(MATRICE='TANGENTE',
                              REAC_ITER=1,),
                    SOLVEUR=_F(METHODE='LDLT',
                               RENUM='SANS',),
                    CONVERGENCE=_F(ITER_GLOB_MAXI=1500,),
                   INFO=1,
                    );

U_101=CALC_CHAMP(reuse =U_101,
              RESULTAT=U_101,
              FORCE='REAC_NODA',
             );
#---------------------------------------------------------------------
#                         VERIFICATION DES RESULTATS
#---------------------------------------------------------------------
# CHARGEMENT 1
TEST_RESU(RESU=(_F(RESULTAT=U_NOR,
                   INST=1.,
                   NOM_CHAM='DEPL',
                   NOM_CMP='DX',
                   GROUP_NO='A',
                   VALE=1.0,
                   PRECISION=1.E-2,
                   REFERENCE='NON_REGRESSION',
                   VERSION='6.3.13',),
                _F(RESULTAT=U_NOR,
                   INST=1.,
                   NOM_CHAM='DEPL',
                   NOM_CMP='DY',
                   GROUP_NO='A',
                   VALE=-1.732,
                   PRECISION=1.E-2,
                   REFERENCE='NON_REGRESSION',
                   VERSION='6.3.13',),
                _F(RESULTAT=U_NOR,
                   INST=1.,
                   NOM_CHAM='DEPL',
                   NOM_CMP='DX',
                   GROUP_NO='B',
                   VALE=1.0,
                   PRECISION=1.E-2,
                   REFERENCE='NON_REGRESSION',
                   VERSION='6.3.13',),
                _F(RESULTAT=U_NOR,
                   INST=1.,
                   NOM_CHAM='DEPL',
                   NOM_CMP='DY',
                   GROUP_NO='B',
                   VALE=-1.732,
                   PRECISION=1.E-2,
                   REFERENCE='NON_REGRESSION',
                   VERSION='6.3.13',),
                 _F(RESULTAT=U_NOR,
                   INST=1.,
                   NOM_CHAM='DEPL',
                   NOM_CMP='DX',
                   GROUP_NO='C',
                   VALE=1.0,
                   PRECISION=1.E-2,
                   REFERENCE='NON_REGRESSION',
                   VERSION='6.3.13',),
                _F(RESULTAT=U_NOR,
                   INST=1.,
                   NOM_CHAM='DEPL',
                   NOM_CMP='DY',
                   GROUP_NO='C',
                   VALE=-1.732,
                   PRECISION=1.E-2,
                   REFERENCE='NON_REGRESSION',
                   VERSION='6.3.13',),
                _F(RESULTAT=U_NOR,
                   INST=1.,
                   NOM_CHAM='DEPL',
                   NOM_CMP='DX',
                   GROUP_NO='D',
                   VALE=1.0,
                   PRECISION=1.E-2,
                   REFERENCE='NON_REGRESSION',
                   VERSION='6.3.13',),
                _F(RESULTAT=U_NOR,
                   INST=1.,
                   NOM_CHAM='DEPL',
                   NOM_CMP='DY',
                   GROUP_NO='D',
                   VALE=-1.732,
                   PRECISION=1.E-2,
                   REFERENCE='NON_REGRESSION',
                   VERSION='6.3.13',),
                ),);

TU_NOR=POST_RELEVE_T(ACTION=_F(INTITULE='FORCE',
                               GROUP_NO='SESC',
                               RESULTAT=U_NOR,
                               NOM_CHAM='REAC_NODA',
                               #RESULTANTE=('DX','DY'),
                               NOM_CMP=('DX','DY'),
                               #REPERE='LOCAL',
                               OPERATION='EXTRACTION',
                               INST=1.,),);

TEST_TABLE(TABLE=TU_NOR,
           TYPE_TEST='SOMM',
           NOM_PARA='DY',
           VALE=2.0784E5,
           PRECISION=0.050000000000000003,
           REFERENCE='ANALYTIQUE',);

TEST_TABLE(TABLE=TU_NOR,
           TYPE_TEST='SOMM',
           NOM_PARA='DX',
           VALE=-1.20E5,
           #CRITERE='ABSOLU',
           PRECISION=0.050000000000000003,
           REFERENCE='ANALYTIQUE',);

# CHARGEMENT 2
TEST_RESU(RESU=(_F(RESULTAT=U_99,
                   INST=1.,
                   NOM_CHAM='DEPL',
                   NOM_CMP='DX',
                   GROUP_NO='A',
                   VALE=1.0,
                   PRECISION=0.023,
                   REFERENCE='NON_REGRESSION',
                   VERSION='6.3.13',),
                _F(RESULTAT=U_99,
                   INST=1.,
                   NOM_CHAM='DEPL',
                   NOM_CMP='DY',
                   GROUP_NO='A',
                   VALE=-1.732,
                   PRECISION=1.E-2,
                   REFERENCE='NON_REGRESSION',
                   VERSION='6.3.13',),
                _F(RESULTAT=U_99,
                   INST=1.,
                   NOM_CHAM='DEPL',
                   NOM_CMP='DX',
                   GROUP_NO='B',
                   VALE=1.0,
                   PRECISION=1.E-2,
                   REFERENCE='NON_REGRESSION',
                   VERSION='6.3.13',),
                _F(RESULTAT=U_99,
                   INST=1.,
                   NOM_CHAM='DEPL',
                   NOM_CMP='DY',
                   GROUP_NO='B',
                   VALE=-1.732,
                   PRECISION=1.E-2,
                   REFERENCE='NON_REGRESSION',
                   VERSION='6.3.13',),
                 _F(RESULTAT=U_99,
                   INST=1.,
                   NOM_CHAM='DEPL',
                   NOM_CMP='DX',
                   GROUP_NO='C',
                   VALE=1.0,
                   PRECISION=0.023,
                   REFERENCE='NON_REGRESSION',
                   VERSION='6.3.13',),
                _F(RESULTAT=U_99,
                   INST=1.,
                   NOM_CHAM='DEPL',
                   NOM_CMP='DY',
                   GROUP_NO='C',
                   VALE=-1.732,
                   PRECISION=1.E-2,
                   REFERENCE='NON_REGRESSION',
                   VERSION='6.3.13',),
                _F(RESULTAT=U_99,
                   INST=1.,
                   NOM_CHAM='DEPL',
                   NOM_CMP='DX',
                   GROUP_NO='D',
                   VALE=1.0,
                   PRECISION=1.E-2,
                   REFERENCE='NON_REGRESSION',
                   VERSION='6.3.13',),
                _F(RESULTAT=U_99,
                   INST=1.,
                   NOM_CHAM='DEPL',
                   NOM_CMP='DY',
                   GROUP_NO='D',
                   VALE=-1.732,
                   PRECISION=1.E-2,
                   REFERENCE='NON_REGRESSION',
                   VERSION='6.3.13',),),);

TU_99=POST_RELEVE_T(ACTION=_F(INTITULE='FORCE',
                              GROUP_NO='SESC',
                              RESULTAT=U_99,
                              NOM_CHAM='REAC_NODA',
                              #RESULTANTE=('DX','DY'),
                              NOM_CMP=('DX','DY'),
                              #REPERE='LOCAL',
                              OPERATION='EXTRACTION',
                              INST=1.),);

TEST_TABLE(TABLE=TU_99,
           TYPE_TEST='SOMM',
           NOM_PARA='DY',
           VALE=1.7220E5,
           PRECISION=0.05,
           REFERENCE='ANALYTIQUE',);

TEST_TABLE(TABLE=TU_99,
           TYPE_TEST='SOMM',
           NOM_PARA='DX',
           VALE=-1.8173E5,
           PRECISION=0.05,
           REFERENCE='ANALYTIQUE',);

# CHARGEMENT 3
TEST_RESU(RESU=(_F(RESULTAT=U_101,
                   INST=1.,
                   NOM_CHAM='DEPL',
                   NOM_CMP='DX',
                   GROUP_NO='A',
                   VALE=8.794,
                   PRECISION=1.E-2,
                   REFERENCE='NON_REGRESSION',
                   VERSION='6.3.13',),
                _F(RESULTAT=U_101,
                   INST=1.,
                   NOM_CHAM='DEPL',
                   NOM_CMP='DY',
                   GROUP_NO='A',
                   VALE=2.7679999999999998,
                   PRECISION=1.E-2,
                   REFERENCE='NON_REGRESSION',
                   VERSION='6.3.13',),
                _F(RESULTAT=U_101,
                   INST=1.,
                   NOM_CHAM='DEPL',
                   NOM_CMP='DX',
                   GROUP_NO='B',
                   VALE=8.7940000000000005,
                   PRECISION=1.E-2,
                   REFERENCE='NON_REGRESSION',
                   VERSION='6.3.13',),
                _F(RESULTAT=U_101,
                   INST=1.,
                   NOM_CHAM='DEPL',
                   NOM_CMP='DY',
                   GROUP_NO='B',
                   VALE=2.7679999999999998,
                   PRECISION=1.E-2,
                   REFERENCE='NON_REGRESSION',
                   VERSION='6.3.13',),
                  _F(RESULTAT=U_101,
                   INST=1.,
                   NOM_CHAM='DEPL',
                   NOM_CMP='DX',
                   GROUP_NO='C',
                   VALE=8.794,
                   PRECISION=1.E-2,
                   REFERENCE='NON_REGRESSION',
                   VERSION='6.3.13',),
                _F(RESULTAT=U_101,
                   INST=1.,
                   NOM_CHAM='DEPL',
                   NOM_CMP='DY',
                   GROUP_NO='C',
                   VALE=2.7679999999999998,
                   PRECISION=1.E-2,
                   REFERENCE='NON_REGRESSION',
                   VERSION='6.3.13',),
                _F(RESULTAT=U_101,
                   INST=1.,
                   NOM_CHAM='DEPL',
                   NOM_CMP='DX',
                   GROUP_NO='D',
                   VALE=8.7940000000000005,
                   PRECISION=1.E-2,
                   REFERENCE='NON_REGRESSION',
                   VERSION='6.3.13',),
                _F(RESULTAT=U_101,
                   INST=1.,
                   NOM_CHAM='DEPL',
                   NOM_CMP='DY',
                   GROUP_NO='D',
                   VALE=2.7679999999999998,
                   PRECISION=1.E-2,
                   REFERENCE='NON_REGRESSION',
                   VERSION='6.3.13',),
                   ),);

TU_101=POST_RELEVE_T(ACTION=_F(INTITULE='FORCE',
                               GROUP_NO='SESC',
                               RESULTAT=U_101,
                               NOM_CHAM='REAC_NODA',
                               NOM_CMP=('DX','DY'),
                               OPERATION='EXTRACTION',
                               INST=1.),);

TEST_TABLE(TABLE=TU_101,
           TYPE_TEST='SOMM',
           NOM_PARA='DY',
           VALE=1.71486E5,
           PRECISION=0.05,
           REFERENCE='ANALYTIQUE',);

TEST_TABLE(TABLE=TU_101,
           TYPE_TEST='SOMM',
           NOM_PARA='DX',
           VALE=-1.82977E5,
           PRECISION=0.05,
           REFERENCE='ANALYTIQUE',);

FIN();
