# MODIF  DATE 18/12/2006   AUTEUR PELLET J.PELLET 
# TITRE BARREAU FISSURE AVEC X-FEM
#            CONFIGURATION MANAGEMENT OF EDF VERSION
# ======================================================================
# COPYRIGHT (C) 1991 - 2004  EDF R&D                  WWW.CODE-ASTER.ORG
# THIS PROGRAM IS FREE SOFTWARE; YOU CAN REDISTRIBUTE IT AND/OR MODIFY
# IT UNDER THE TERMS OF THE GNU GENERAL PUBLIC LICENSE AS PUBLISHED BY
# THE FREE SOFTWARE FOUNDATION; EITHER VERSION 2 OF THE LICENSE, OR
# (AT YOUR OPTION) ANY LATER VERSION.
#
# THIS PROGRAM IS DISTRIBUTED IN THE HOPE THAT IT WILL BE USEFUL, BUT
# WITHOUT ANY WARRANTY; WITHOUT EVEN THE IMPLIED WARRANTY OF
# MERCHANTABILITY OR FITNESS FOR A PARTICULAR PURPOSE. SEE THE GNU
# GENERAL PUBLIC LICENSE FOR MORE DETAILS.
#
# YOU SHOULD HAVE RECEIVED A COPY OF THE GNU GENERAL PUBLIC LICENSE
# ALONG WITH THIS PROGRAM; IF NOT, WRITE TO EDF R&D CODE_ASTER,
#    1 AVENUE DU GENERAL DE GAULLE, 92141 CLAMART CEDEX, FRANCE.
# ======================================================================

DEBUT(CODE=_F(NOM='SSNV173A', NIV_PUB_WEB='INTERNET'),DEBUG=_F(SDVERI='OUI'))

PRE_GIBI();

MAILLE=LIRE_MAILLAGE(INFO=1,);

MAILLAGE=CREA_MAILLAGE(MAILLAGE=MAILLE,
                       );

MAILLAGE=DEFI_GROUP(reuse =MAILLAGE,
                    MAILLAGE=MAILLAGE,
                    CREA_GROUP_NO=_F(GROUP_MA='VOL',),);

MAILLAG2=CREA_MAILLAGE(MAILLAGE=MAILLAGE,
                       LINE_QUAD=_F(GROUP_MA='VOL',),);

MODELEIN=AFFE_MODELE(MAILLAGE=MAILLAG2,
                   AFFE=_F(GROUP_MA=('VOL',),
                            PHENOMENE='MECANIQUE',
                            MODELISATION='3D_XFEM',
                           ),
                   );

LN=FORMULE(NOM_PARA=('X','Y','Z'),VALE='Z-12.5 ');
LT=FORMULE(NOM_PARA=('X','Y','Z'),VALE='X-10. ');

FISS=DEFI_FISS_XFEM(MODELE=MODELEIN,
                    DEFI_FISS=_F(
                                 FONC_LT=LT,
                                 FONC_LN=LN,
                                 ),
                    GROUP_MA_ENRI='VOL',
                    ORIE_FOND=_F(PFON_INI= (2.5 ,0. ,12.5 ),
                                 VECT_ORIE=(0. ,0. ,1. ),
                                 PT_ORIGIN=(-0.5,0.,1.5 ),),
                    INFO=3,
                    );

MODELEK=MODI_MODELE_XFEM(MODELE_IN=MODELEIN,
                         FISSURE=FISS,
                         INFO=2,
                         );

E=205000.0E6
nu=0.3
ACIER=DEFI_MATERIAU(ELAS=_F(E=E,
                            NU=nu,
                            RHO=7800.0,),);

CHAMPMAT=AFFE_MATERIAU(MAILLAGE=MAILLAG2,
                       MODELE=MODELEK,
                       AFFE=(_F(GROUP_MA=('VOL',),
                                MATER=ACIER,
                                TEMP_REF=0.0,),
                             ),);

CHXFEM=AFFE_CHAR_MECA(MODELE=MODELEK,
                      LIAISON_XFEM='OUI',);

ZERO=DEFI_CONSTANTE(VALE=0.)
DEPHAUT=DEFI_CONSTANTE(VALE=1.E-6)
# definition de la fonction signe
def SIGN(x) :
   if x<0.  :  return -1.
   if x>0.  :  return  1.
   if x==0. :  return  0.

# definition de la fonction signe de LN
SILN=FORMULE(NOM_PARA=('X','Y','Z'),VALE='SIGN(LN(X,Y,Z))');

UN=DEFI_CONSTANTE(VALE=1.);


CH=AFFE_CHAR_MECA_F(MODELE=MODELEK,
                       LIAISON_DDL=(
                                 _F(NOEUD=('N1','N1',),
                                    DDL=('DCX','H1X',),
                                    COEF_MULT_FONC=(UN,SILN),
                                    COEF_IMPO=ZERO,),
                                 _F(NOEUD=('N1','N1',),
                                    DDL=('DCY','H1Y',),
                                    COEF_MULT_FONC=(UN,SILN),
                                    COEF_IMPO=ZERO,),
                                 _F(NOEUD=('N1','N1',),
                                    DDL=('DCZ','H1Z',),
                                    COEF_MULT_FONC=(UN,SILN),
                                    COEF_IMPO=ZERO,),
                                 _F(NOEUD=('N2','N2',),
                                    DDL=('DCX','H1X',),
                                    COEF_MULT_FONC=(UN,SILN),
                                    COEF_IMPO=ZERO,),
                                 _F(NOEUD=('N2','N2',),
                                    DDL=('DCY','H1Y',),
                                    COEF_MULT_FONC=(UN,SILN),
                                    COEF_IMPO=ZERO,),
                                 _F(NOEUD=('N2','N2',),
                                    DDL=('DCZ','H1Z',),
                                    COEF_MULT_FONC=(UN,SILN),
                                    COEF_IMPO=ZERO,),
                                  _F(NOEUD=('N3','N3',),
                                    DDL=('DCX','H1X',),
                                    COEF_MULT_FONC=(UN,SILN),
                                    COEF_IMPO=ZERO,),
                                 _F(NOEUD=('N3','N3',),
                                    DDL=('DCY','H1Y',),
                                    COEF_MULT_FONC=(UN,SILN),
                                    COEF_IMPO=ZERO,),
                                 _F(NOEUD=('N3','N3',),
                                    DDL=('DCZ','H1Z',),
                                    COEF_MULT_FONC=(UN,SILN),
                                    COEF_IMPO=ZERO,),
                                 _F(NOEUD=('N4','N4',),
                                    DDL=('DCX','H1X',),
                                    COEF_MULT_FONC=(UN,SILN),
                                    COEF_IMPO=ZERO,),
                                 _F(NOEUD=('N4','N4',),
                                    DDL=('DCY','H1Y',),
                                    COEF_MULT_FONC=(UN,SILN),
                                    COEF_IMPO=ZERO,),
                                 _F(NOEUD=('N4','N4',),
                                    DDL=('DCZ','H1Z',),
                                    COEF_MULT_FONC=(UN,SILN),
                                    COEF_IMPO=ZERO,),
                                 _F(NOEUD=('N5','N5',),
                                    DDL=('DCX','H1X',),
                                    COEF_MULT_FONC=(UN,SILN),
                                    COEF_IMPO=ZERO,),
                                 _F(NOEUD=('N5','N5',),
                                    DDL=('DCY','H1Y',),
                                    COEF_MULT_FONC=(UN,SILN),
                                    COEF_IMPO=ZERO,),
                                 _F(NOEUD=('N5','N5',),
                                    DDL=('DCZ','H1Z',),
                                    COEF_MULT_FONC=(UN,SILN),
                                    COEF_IMPO=DEPHAUT,),
                                  _F(NOEUD=('N6','N6',),
                                    DDL=('DCX','H1X',),
                                    COEF_MULT_FONC=(UN,SILN),
                                    COEF_IMPO=ZERO,),
                                 _F(NOEUD=('N6','N6',),
                                    DDL=('DCY','H1Y',),
                                    COEF_MULT_FONC=(UN,SILN),
                                    COEF_IMPO=ZERO,),
                                 _F(NOEUD=('N6','N6',),
                                    DDL=('DCZ','H1Z',),
                                    COEF_MULT_FONC=(UN,SILN),
                                    COEF_IMPO=DEPHAUT,),
                                 _F(NOEUD=('N7','N7',),
                                    DDL=('DCX','H1X',),
                                    COEF_MULT_FONC=(UN,SILN),
                                    COEF_IMPO=ZERO,),
                                 _F(NOEUD=('N7','N7',),
                                    DDL=('DCY','H1Y',),
                                    COEF_MULT_FONC=(UN,SILN),
                                    COEF_IMPO=ZERO,),
                                 _F(NOEUD=('N7','N7',),
                                    DDL=('DCZ','H1Z',),
                                    COEF_MULT_FONC=(UN,SILN),
                                    COEF_IMPO=DEPHAUT,),
                                 _F(NOEUD=('N8','N8',),
                                    DDL=('DCX','H1X',),
                                    COEF_MULT_FONC=(UN,SILN),
                                    COEF_IMPO=ZERO,),
                                 _F(NOEUD=('N8','N8',),
                                    DDL=('DCY','H1Y',),
                                    COEF_MULT_FONC=(UN,SILN),
                                    COEF_IMPO=ZERO,),
                                 _F(NOEUD=('N8','N8',),
                                    DDL=('DCZ','H1Z',),
                                    COEF_MULT_FONC=(UN,SILN),
                                    COEF_IMPO=DEPHAUT,),
                                    ),
                       INFO=1,);

L_INST=DEFI_LIST_REEL(DEBUT=0.0,
                      INTERVALLE=_F(JUSQU_A=3.0,
                                    NOMBRE=3,),);

UTOT=STAT_NON_LINE(MODELE=MODELEK,
                   CHAM_MATER=CHAMPMAT,
                   EXCIT=(_F(CHARGE=CH,),
                          _F(CHARGE=CHXFEM,),),
                   COMP_ELAS=_F(RELATION='ELAS',
                                GROUP_MA='VOL',),
                   INCREMENT=_F(LIST_INST=L_INST,
                                INST_FIN=1.0,),
#                   NEWTON=_F(MATRICE='ELASTIQUE',),
                   CONVERGENCE=_F(ITER_GLOB_MAXI=8,
                                  RESI_GLOB_MAXI=1e-07,
#                                  RESI_GLOB_RELA=1e-06,
                                  ),
#                   SOLVEUR=_F(METHODE='LDLT',
#                              RENUM='RCMK',
#                              STOP_SINGULIER='OUI',),
                   ARCHIVAGE=_F(CHAM_EXCLU='VARI_ELGA',),
                   INFO=2,);

DEP=POST_RELEVE_T(ACTION=_F(INTITULE='DEPLE',
                                NOEUD=('N1','N2','N3','N4','N5','N6','N7','N8',),
                                RESULTAT=UTOT,
                                NOM_CHAM='DEPL',
                                NUME_ORDRE=1,
                                TOUT_CMP='OUI',
#                                NOM_CMP=('DCX','DCY','DCZ','H1X','H1Y','H1Z',),
                                OPERATION='EXTRACTION',),);

IMPR_TABLE(TABLE=DEP,
           FORMAT='AGRAF',
           FORMAT_R='1PE12.5',
           FORMAT_C='MODULE_PHASE',
           IMPR_FONCTION='NON',);

DCZH1Z=1E-6/2

TEST_TABLE(TABLE=DEP,
           NOM_PARA='DCX',
           TYPE_TEST='MIN',
           VALE=0.,
           CRITERE='ABSOLU',
           PRECISION=1.0E-16,
           REFERENCE='ANALYTIQUE',);

TEST_TABLE(TABLE=DEP,
           NOM_PARA='DCX',
           TYPE_TEST='MAX',
           VALE=0.,
           CRITERE='ABSOLU',
           PRECISION=1.0E-16,
           REFERENCE='ANALYTIQUE',);

TEST_TABLE(TABLE=DEP,
           NOM_PARA='DCY',
           TYPE_TEST='MIN',
           VALE=0.,
           CRITERE='ABSOLU',
           PRECISION=1.0E-16,
           REFERENCE='ANALYTIQUE',);

TEST_TABLE(TABLE=DEP,
           NOM_PARA='DCY',
           TYPE_TEST='MAX',
           VALE=0.,
           CRITERE='ABSOLU',
           PRECISION=1.0E-16,
           REFERENCE='ANALYTIQUE',);

TEST_TABLE(TABLE=DEP,
           NOM_PARA='DCZ',
           TYPE_TEST='MIN',
           VALE=DCZH1Z,
           CRITERE='RELATIF',
           PRECISION=1.0E-11,
           REFERENCE='ANALYTIQUE',);

TEST_TABLE(TABLE=DEP,
           NOM_PARA='DCZ',
           TYPE_TEST='MAX',
           VALE=DCZH1Z,
           CRITERE='RELATIF',
           PRECISION=1.0E-11,
           REFERENCE='ANALYTIQUE',);

TEST_TABLE(TABLE=DEP,
           NOM_PARA='H1X',
           TYPE_TEST='MIN',
           VALE=0.,
           CRITERE='ABSOLU',
           PRECISION=1.0E-16,
           REFERENCE='ANALYTIQUE',);

TEST_TABLE(TABLE=DEP,
           NOM_PARA='H1X',
           TYPE_TEST='MAX',
           VALE=0.,
           CRITERE='ABSOLU',
           PRECISION=1.0E-16,
           REFERENCE='ANALYTIQUE',);

TEST_TABLE(TABLE=DEP,
           NOM_PARA='H1Y',
           TYPE_TEST='MIN',
           VALE=0.,
           CRITERE='ABSOLU',
           PRECISION=1.0E-16,
           REFERENCE='ANALYTIQUE',);

TEST_TABLE(TABLE=DEP,
           NOM_PARA='H1Y',
           TYPE_TEST='MAX',
           VALE=0.,
           CRITERE='ABSOLU',
           PRECISION=1.0E-16,
           REFERENCE='ANALYTIQUE',);

TEST_TABLE(TABLE=DEP,
           NOM_PARA='H1Z',
           TYPE_TEST='MIN',
           VALE=DCZH1Z,
           CRITERE='RELATIF',
           PRECISION=1.0E-11,
           REFERENCE='ANALYTIQUE',);

TEST_TABLE(TABLE=DEP,
           NOM_PARA='H1Z',
           TYPE_TEST='MAX',
           VALE=DCZH1Z,
           CRITERE='RELATIF',
           PRECISION=1.0E-11,
           REFERENCE='ANALYTIQUE',);


MA_XFEM=POST_MAIL_XFEM(MODELE=MODELEK)

DEPL=POST_CHAM_XFEM(MAILLAGE=MA_XFEM,
                    MODELE=MODELEK,
                    NOM_CHAM='DEPL',
                    RESULTAT=UTOT)

DEFI_FICHIER(UNITE=81)
IMPR_RESU(FORMAT='IDEAS',UNITE=81,RESU=_F(MAILLAGE=MA_XFEM))
DEFI_FICHIER(UNITE=82)
IMPR_RESU(FORMAT='IDEAS',UNITE=82,RESU=_F(RESULTAT=DEPL))

FIN();
