# TITRE CANTILEVER EN GRANDE ROTATION SOUMISE A UN MOMENT LINEIQUE
# ======================================================================
# COPYRIGHT (C) 1991 - 2012  EDF R&D                  WWW.CODE-ASTER.ORG
# THIS PROGRAM IS FREE SOFTWARE; YOU CAN REDISTRIBUTE IT AND/OR MODIFY
# IT UNDER THE TERMS OF THE GNU GENERAL PUBLIC LICENSE AS PUBLISHED BY
# THE FREE SOFTWARE FOUNDATION; EITHER VERSION 2 OF THE LICENSE, OR
# (AT YOUR OPTION) ANY LATER VERSION.
#
# THIS PROGRAM IS DISTRIBUTED IN THE HOPE THAT IT WILL BE USEFUL, BUT
# WITHOUT ANY WARRANTY; WITHOUT EVEN THE IMPLIED WARRANTY OF
# MERCHANTABILITY OR FITNESS FOR A PARTICULAR PURPOSE. SEE THE GNU
# GENERAL PUBLIC LICENSE FOR MORE DETAILS.
#
# YOU SHOULD HAVE RECEIVED A COPY OF THE GNU GENERAL PUBLIC LICENSE
# ALONG WITH THIS PROGRAM; IF NOT, WRITE TO EDF R&D CODE_ASTER,
#    1 AVENUE DU GENERAL DE GAULLE, 92141 CLAMART CEDEX, FRANCE.
# ======================================================================
#
DEBUT(CODE=_F(NOM='SSNV138C',NIV_PUB_WEB='INTERNET'),DEBUG=_F(SDVERI='OUI'))

MAIL=LIRE_MAILLAGE(VERI_MAIL=_F(VERIF='OUI'),FORMAT='MED',);

MA=CREA_MAILLAGE(MAILLAGE=MAIL,
                 MODI_MAILLE=_F(TOUT='OUI',
                                OPTION='TRIA6_7',
                                   ),);

MA=DEFI_GROUP(reuse =MA,
              MAILLAGE=MA,
              CREA_GROUP_NO=_F(GROUP_MA='ENCASTR',),);

MO1=AFFE_MODELE(AFFE=_F(TOUT='OUI',
                        PHENOMENE='MECANIQUE',
                        MODELISATION='COQUE_3D',),
                MAILLAGE=MA,);

MAT=DEFI_MATERIAU(ELAS=_F(NU=0.0,
                          ALPHA=0.0,
                          E=1.2000000E7,),);

CHMAT1=AFFE_MATERIAU(AFFE=_F(MATER=MAT,
                             TOUT='OUI',),
                     MAILLAGE=MA,);

CHA1=AFFE_CHAR_MECA(DDL_IMPO=_F(DZ=0.0,
                                DX=0.0,
                                DY=0.0,
                                DRZ=0.0,
                                DRX=0.0,
                                DRY=0.0,
                                GROUP_NO='ENCASTR'),
                    MODELE=MO1,);

CHA2=AFFE_CHAR_MECA(MODELE=MO1,
                    FORCE_ARETE=_F(MY=-100.0,
                                   GROUP_MA='LIBRE',),);

CARA1=AFFE_CARA_ELEM(MODELE=MO1,
                     COQUE=_F(GROUP_MA='TOUT',
                              COEF_RIGI_DRZ=1.E4,
                              EPAIS=0.1,),);

L_INST=DEFI_LIST_REEL(INTERVALLE=(_F(JUSQU_A=2.1,
                               NOMBRE=7,),
                           _F(JUSQU_A=2.2,
                               NOMBRE=1,),
# _F(JUSQU_A=4,
#NOMBRE=4,),
                                       ),
                                 DEBUT=0.0,);

D_FONC=DEFI_FONCTION(NOM_PARA='INST',
                     VALE=(0.0,0.0,10.0,10.0),);

NONLI=STAT_NON_LINE(CHAM_MATER=CHMAT1,
                    MODELE=MO1,
                    COMP_ELAS=_F(DEFORMATION='GROT_GDEP',
                                 RELATION='ELAS',),
                    CONVERGENCE=_F(ITER_GLOB_MAXI=100,
                                   RESI_GLOB_RELA=1.E-06,),
                    INCREMENT=_F(LIST_INST=L_INST,),
                    CARA_ELEM=CARA1,
                    NEWTON=_F(REAC_ITER=1,
                              MATRICE='TANGENTE',),
                    EXCIT=(_F(CHARGE=CHA1,),
                           _F(CHARGE=CHA2,
                              FONC_MULT=D_FONC,),),);

TEST_RESU(RESU=_F(GROUP_NO='P2',
                  INST=0.59999999999999998,
                  RESULTAT=NONLI,
                  NOM_CHAM='DEPL',
                  NOM_CMP='DRY',
                  VALE_CALC=-0.599356666,
                  VALE_REFE=-0.59999999999999998,
                  REFERENCE='NON_DEFINI',
                  CRITERE='RELATIF',
                  PRECISION=1.E-2,),
          )

TEST_RESU(RESU=_F(GROUP_NO='P2',
                  INST=1.2,
                  RESULTAT=NONLI,
                  NOM_CHAM='DEPL',
                  NOM_CMP='DRY',
                  VALE_CALC=-1.195069143,
                  VALE_REFE=-1.2,
                  REFERENCE='NON_DEFINI',
                  CRITERE='RELATIF',
                  PRECISION=1.E-2,),
          )

TEST_RESU(RESU=_F(GROUP_NO='P2',
                  INST=1.8,
                  RESULTAT=NONLI,
                  NOM_CHAM='DEPL',
                  NOM_CMP='DRY',
                  VALE_CALC=-1.784371832,
                  VALE_REFE=-1.8,
                  REFERENCE='NON_DEFINI',
                  CRITERE='RELATIF',
                  PRECISION=1.E-2,),
          )

TEST_RESU(RESU=_F(GROUP_NO='P2',
                  INST=2.2000000000000002,
                  RESULTAT=NONLI,
                  NOM_CHAM='DEPL',
                  NOM_CMP='DRY',
                  VALE_CALC=-2.172821931,
                  VALE_REFE=-2.2000000000000002,
                  REFERENCE='NON_DEFINI',
                  CRITERE='RELATIF',
                  PRECISION=0.02,),
          )

TEST_RESU(RESU=_F(GROUP_NO='P2',
                  INST=0.59999999999999998,
                  RESULTAT=NONLI,
                  NOM_CHAM='DEPL',
                  NOM_CMP='DX',
                  VALE_CALC=-0.588148517,
                  VALE_REFE=-0.58929211000000004,
                  REFERENCE='NON_DEFINI',
                  CRITERE='RELATIF',
                  PRECISION=5.0000000000000001E-3,),
          )

TEST_RESU(RESU=_F(GROUP_NO='P2',
                  INST=0.59999999999999998,
                  RESULTAT=NONLI,
                  NOM_CHAM='DEPL',
                  NOM_CMP='DZ',
                  VALE_CALC=2.91107,
                  TOLE_MACHINE=1.E-3,
                  CRITERE='RELATIF',
                  ),
          )

TEST_RESU(RESU=_F(GROUP_NO='P2',
                  INST=1.2,
                  RESULTAT=NONLI,
                  NOM_CHAM='DEPL',
                  NOM_CMP='DX',
                  VALE_CALC=-2.216985985,
                  VALE_REFE=-2.2330076000000001,
                  REFERENCE='NON_DEFINI',
                  CRITERE='RELATIF',
                  PRECISION=1.E-2,),
          )

TEST_RESU(RESU=_F(GROUP_NO='P2',
                  INST=1.2,
                  RESULTAT=NONLI,
                  NOM_CHAM='DEPL',
                  NOM_CMP='DZ',
                  VALE_CALC=5.297857536,
                  VALE_REFE=5.3136850000000004,
                  REFERENCE='NON_DEFINI',
                  CRITERE='RELATIF',
                  PRECISION=5.0000000000000001E-3,),
          )

TEST_RESU(RESU=_F(GROUP_NO='P2',
                  INST=1.8,
                  RESULTAT=NONLI,
                  NOM_CHAM='DEPL',
                  NOM_CMP='DX',
                  VALE_CALC=-4.526617947,
                  VALE_REFE=-4.5897353000000001,
                  REFERENCE='NON_DEFINI',
                  CRITERE='RELATIF',
                  PRECISION=0.02,),
          )

TEST_RESU(RESU=_F(GROUP_NO='P2',
                  INST=1.8,
                  RESULTAT=NONLI,
                  NOM_CHAM='DEPL',
                  NOM_CMP='DZ',
                  VALE_CALC=6.792622968,
                  VALE_REFE=6.8177893999999997,
                  REFERENCE='NON_DEFINI',
                  CRITERE='RELATIF',
                  PRECISION=5.0000000000000001E-3,),
          )

TEST_RESU(RESU=_F(GROUP_NO='P2',
                  INST=2.2000000000000002,
                  RESULTAT=NONLI,
                  NOM_CHAM='DEPL',
                  NOM_CMP='DX',
                  VALE_CALC=-6.212783555,
                  VALE_REFE=-6.3250162999999997,
                  REFERENCE='NON_DEFINI',
                  CRITERE='RELATIF',
                  PRECISION=0.02,),
          )

TEST_RESU(RESU=_F(GROUP_NO='P2',
                  INST=2.2000000000000002,
                  RESULTAT=NONLI,
                  NOM_CHAM='DEPL',
                  NOM_CMP='DZ',
                  VALE_CALC=7.207771113,
                  VALE_REFE=7.2204595999999999,
                  REFERENCE='NON_DEFINI',
                  CRITERE='RELATIF',
                  PRECISION=1.E-2,),
          )

FIN();
