# TITRE FISSURE DEBOUCHANTE DANS UNE PLAQUE 3D DE LARGEUR FINIE AVEC X-FEM
# ======================================================================
# COPYRIGHT (C) 1991 - 2013  EDF R&D                  WWW.CODE-ASTER.ORG
# THIS PROGRAM IS FREE SOFTWARE; YOU CAN REDISTRIBUTE IT AND/OR MODIFY
# IT UNDER THE TERMS OF THE GNU GENERAL PUBLIC LICENSE AS PUBLISHED BY
# THE FREE SOFTWARE FOUNDATION; EITHER VERSION 2 OF THE LICENSE, OR
# (AT YOUR OPTION) ANY LATER VERSION.
#
# THIS PROGRAM IS DISTRIBUTED IN THE HOPE THAT IT WILL BE USEFUL, BUT
# WITHOUT ANY WARRANTY; WITHOUT EVEN THE IMPLIED WARRANTY OF
# MERCHANTABILITY OR FITNESS FOR A PARTICULAR PURPOSE. SEE THE GNU
# GENERAL PUBLIC LICENSE FOR MORE DETAILS.
#
# YOU SHOULD HAVE RECEIVED A COPY OF THE GNU GENERAL PUBLIC LICENSE
# ALONG WITH THIS PROGRAM; IF NOT, WRITE TO EDF R&D CODE_ASTER,
#    1 AVENUE DU GENERAL DE GAULLE, 92141 CLAMART CEDEX, FRANCE.
# ======================================================================

DEBUT(CODE=_F(NOM='SSNV185D',NIV_PUB_WEB='INTERNET',VISU_EFICAS='NON'),DEBUG=_F(SDVERI='OUI'))

# MODELISATION D :X-FEM FISSURE SEMI-NON-COINCIDENTE - TRACTION (FACE SUP)

#----------------------------------------------
#                MAILLAGE : hexa_5_30_50.mgib
#----------------------------------------------

MAILLAG1=LIRE_MAILLAGE(FORMAT='MED',INFO=1,);

MAILLAG1=DEFI_GROUP(reuse =MAILLAG1,
                    MAILLAGE=MAILLAG1,
                    CREA_GROUP_NO=_F(GROUP_MA='VOL',),);

MAILLAG1=DEFI_GROUP(reuse =MAILLAG1,
                    MAILLAGE=MAILLAG1,
                    CREA_GROUP_NO=_F(GROUP_MA='SURFSUP',),);

#----------------------------------------------
#                   MODELE ET FISSURE
#----------------------------------------------

MODELEIN=AFFE_MODELE(MAILLAGE=MAILLAG1,
                     AFFE=(_F(GROUP_MA=('VOL',),
                              PHENOMENE='MECANIQUE',
                              MODELISATION='3D',),
                           _F(GROUP_MA=('SURFINF','SURFSUP',),
                              PHENOMENE='MECANIQUE',
                              MODELISATION='3D',),),);

MAILLAG1=MODI_MAILLAGE(reuse =MAILLAG1,
                       MAILLAGE=MAILLAG1,
                       ORIE_PEAU_3D=_F(GROUP_MA=('SURFSUP','SURFINF',),),
                       );

# PARAMETRES DE LA FISSURE : 0 < a < 6.5 -> influt sur le choix Rsup !
#                            b = 10.
a=5.-0.1666
b=10.
LN=FORMULE(NOM_PARA=('X','Y','Z'),VALE='Z-15.');
LT=FORMULE(NOM_PARA=('X','Y','Z'),VALE='b-a-Y');

FISS=DEFI_FISS_XFEM(MODELE=MODELEIN,
                    DEFI_FISS=_F(FONC_LT=LT,FONC_LN=LN,),
                    );

MODELEK=MODI_MODELE_XFEM(MODELE_IN=MODELEIN,FISSURE=FISS,INFO=1,);


#----------------------------------------------
#                   MATERIAU
#----------------------------------------------

E=205000.0E6
nu=0.
rho=7800.
ACIER=DEFI_MATERIAU(ELAS=_F(E=E,NU=nu,RHO=rho,),);

CHAMPMA1=AFFE_MATERIAU(MAILLAGE=MAILLAG1,
                       MODELE=MODELEK,
                       AFFE=_F(TOUT = 'OUI',
                                MATER=ACIER,
                                ),
                             );

#----------------------------------------------
#                   CHARGEMENTS
#----------------------------------------------

PRES=-1.E6
CH1=AFFE_CHAR_MECA(MODELE=MODELEK,
                   DDL_IMPO=(_F(NOEUD='N3751',DX=0.0,DY=0.0,DZ=0.0,),
                             _F(NOEUD='N9276',DZ=0.0,),
                             _F(NOEUD='N3760',DX=0.0,DZ=0.0,),),);

CH2=AFFE_CHAR_MECA(MODELE=MODELEK,
                   PRES_REP=_F(GROUP_MA=('SURFSUP','SURFINF',),PRES=PRES,),);

#----------------------------------------------
#                   RESOLUTION
#----------------------------------------------

L_INS1=DEFI_LIST_REEL(DEBUT=0.0,INTERVALLE=_F(JUSQU_A=3.0,NOMBRE=3,),);

UTOT1=MECA_STATIQUE(MODELE=MODELEK,
                   CHAM_MATER=CHAMPMA1,
                   EXCIT=(
                          _F(CHARGE=CH1),
                          _F(CHARGE=CH2),
                          ),
                   INFO=1,
                   ); 
#------------------------------------------------------------------------
# POST-TRAITEMENT : CALCUL DES SIFS PAR LA METHODE ENERGETIQUE AVEC X-FEM
#------------------------------------------------------------------------

# TEST AVEC PLUSIEURS COURONNES
if a > 4  :
  RI=[2. , 0.666 , 1. , 1. , 1. , 2.1]
  RS=[4. , 1.666 , 2. , 3. , 4. , 3.9]
else :
  RI=[0.666 , 1.]
  RS=[1.666 , 2.]


nbc=len(RI)
SIF = [None]*(nbc+1)

for i in range(0,nbc) :

   SIF[i]=CALC_G(RESULTAT=UTOT1,
                 OPTION='CALC_K_G',
                 THETA=_F(FISSURE=FISS,
                          R_INF=RI[i],
                          R_SUP=RS[i],),
                 LISSAGE=_F(LISSAGE_THETA='LAGRANGE',
                            LISSAGE_G='LAGRANGE',),);

   IMPR_TABLE(TABLE=SIF[i],);

SIF[nbc]=CALC_G(RESULTAT=UTOT1,
                 OPTION='CALC_K_G',
                 THETA=_F(FISSURE=FISS,),
                 LISSAGE=_F(LISSAGE_THETA='LAGRANGE',
                            LISSAGE_G='LAGRANGE',),);

IMPR_TABLE(TABLE=SIF[nbc],);

# SOLUTION ANALYTIQUE (chaboche p.53)
coef=(pi*a)/(2.*b)
fab=sqrt(tan(coef)/coef)*(0.752+0.37*(1.-sin(coef))**3+2.02*a/b)/cos(coef)
K1REF=-PRES*sqrt(pi*a)*fab

prec = 0.03

VAL_CALC = [1.0328891156786E+07 ,
            1.0204697382544E+07 ,
            1.0336078464517E+07 ,
            1.0211885166996E+07 ,
            1.0334436650484E+07 ,
            1.0209874243343E+07 ,
            1.0331418812195E+07 ,
            1.020704302982E+07  ,
            1.0330739654685E+07 ,
            1.020642300281E+07  ,
            1.0328872405126E+07 ,
            1.0204676632155E+07 ,
            1.0341138440707E+07 ,
            1.021732022387E+07  , ]
            
for i in range(0,nbc+1) :
   TEST_TABLE(TABLE=SIF[i],
              NOM_PARA='K1',
              TYPE_TEST='MAX',
              VALE_CALC=VAL_CALC[i*2+0], VALE_REFE=K1REF,
              CRITERE='RELATIF',
              PRECISION=prec,    
              REFERENCE='ANALYTIQUE',);

   TEST_TABLE(TABLE=SIF[i],
              NOM_PARA='K1',
              TYPE_TEST='MIN',
              VALE_CALC=VAL_CALC[i*2+1], VALE_REFE=K1REF,
              CRITERE='RELATIF',
              PRECISION=prec,    
              REFERENCE='ANALYTIQUE',);
#------------------------------------------------------------------------
# POST-TRAITEMENT : CALCUL DES SIFS AVEC POST_K1_K2_K3
#------------------------------------------------------------------------

PK=POST_K1_K2_K3(MODELISATION='3D',
                     MATER=ACIER,
                     FISSURE = FISS,
                     RESULTAT  = UTOT1,
                     ABSC_CURV_MAXI = 1.5,
                     NB_NOEUD_COUPE = 6,
                    )

IMPR_TABLE(TABLE = PK)

TEST_TABLE(REFERENCE='ANALYTIQUE',
           PRECISION=0.10000000000000001,
           VALE_CALC= 1.1401827406434E+07,
           VALE_REFE=1.044773991882051E7,
           NOM_PARA='K1',
           TABLE=PK,
           FILTRE=(_F(NOM_PARA='NUM_PT',
                      VALE_I=1,),
                   _F(NOM_PARA='INST',
                      VALE=0.0,),
                   ),
           )

#------------------------------------------------------------------------
# POST-TRAITEMENT : MAILLAGE FISSURE
#------------------------------------------------------------------------

MA_XFEM=POST_MAIL_XFEM(
                       MODELE        = MODELEK,
                       INFO          = 2)

TABDEP=POST_RELEVE_T(ACTION=_F(INTITULE='DEPLE',
                               GROUP_NO='VOL',
                               RESULTAT=UTOT1,
                               NOM_CHAM='DEPL',
                               NUME_ORDRE=1,
                               NOM_CMP='DX',
                               OPERATION='EXTRACTION',),);

# TEST DE NON REGRESSION PAR RAPPORT A LA VERSION 8.2.14

DXREF=4.7430e+03
DYREF=4.74300e+04
DZREF=1.42289996944e+05
PREC=1.e-10

TEST_TABLE(CRITERE='RELATIF',
           VALE_CALC=4743.0,
           NOM_PARA='COOR_X',
           TYPE_TEST='SOMM_ABS',
           TABLE=TABDEP,
           )

TEST_TABLE(CRITERE='RELATIF',
           VALE_CALC=4.7430E4,
           NOM_PARA='COOR_Y',
           TYPE_TEST='SOMM_ABS',
           TABLE=TABDEP,
           )

TEST_TABLE(CRITERE='RELATIF',
           VALE_CALC=1.4228999694400001E5,
           NOM_PARA='COOR_Z',
           TYPE_TEST='SOMM_ABS',
           TABLE=TABDEP,
           )

#------------------------------------------------------------------------
# POST-TRAITEMENT : DEPLACEMENTS POUR LE MAILLAGE FISSURE
#------------------------------------------------------------------------


MOD_VISU=AFFE_MODELE(MAILLAGE=MA_XFEM,
                     AFFE=_F(TOUT='OUI',
                              PHENOMENE='MECANIQUE',
                              MODELISATION='3D',),) 

RES_XFEM=POST_CHAM_XFEM(MODELE_VISU   = MOD_VISU,
                        RESULTAT      = UTOT1,
                        
                        INFO          = 2)

TEST_RESU(RESU=(_F(NUME_ORDRE=1,
                   TYPE_TEST='SOMM_ABS',
                   RESULTAT=RES_XFEM,
                   NOM_CHAM='DEPL',
                   NOM_CMP='DX',
                   VALE_CALC=4.1238378990915E-3,
                   
                   CRITERE='RELATIF',
                   ),
                _F(NUME_ORDRE=1,
                   TYPE_TEST='SOMM_ABS',
                   RESULTAT=RES_XFEM,
                   NOM_CHAM='DEPL',
                   NOM_CMP='DY',
                   VALE_CALC=1.4804804254496999,
                   
                   CRITERE='RELATIF',
                   ),
                _F(NUME_ORDRE=1,
                   TYPE_TEST='SOMM_ABS',
                   RESULTAT=RES_XFEM,
                   NOM_CHAM='DEPL',
                   NOM_CMP='DZ',
                   VALE_CALC=1.1204378258422001,
                   
                   CRITERE='RELATIF',
                   ),
                ),
          )

FIN();
