# MODIF  DATE 22/01/2013   AUTEUR LADIER A.LADIER 
# TITRE FISSURE DEBOUCHANTE DANS UNE PLAQUE 3D DE LARGEUR FINIE AVEC X-FEM
# ssnv185e.para = tps_job 70 mem_job 512Mo ncpus 1 liste_test S
#            CONFIGURATION MANAGEMENT OF EDF VERSION
# ======================================================================
# COPYRIGHT (C) 1991 - 2013  EDF R&D                  WWW.CODE-ASTER.ORG
# THIS PROGRAM IS FREE SOFTWARE; YOU CAN REDISTRIBUTE IT AND/OR MODIFY
# IT UNDER THE TERMS OF THE GNU GENERAL PUBLIC LICENSE AS PUBLISHED BY
# THE FREE SOFTWARE FOUNDATION; EITHER VERSION 2 OF THE LICENSE, OR
# (AT YOUR OPTION) ANY LATER VERSION.
#
# THIS PROGRAM IS DISTRIBUTED IN THE HOPE THAT IT WILL BE USEFUL, BUT
# WITHOUT ANY WARRANTY; WITHOUT EVEN THE IMPLIED WARRANTY OF
# MERCHANTABILITY OR FITNESS FOR A PARTICULAR PURPOSE. SEE THE GNU
# GENERAL PUBLIC LICENSE FOR MORE DETAILS.
#
# YOU SHOULD HAVE RECEIVED A COPY OF THE GNU GENERAL PUBLIC LICENSE
# ALONG WITH THIS PROGRAM; IF NOT, WRITE TO EDF R&D CODE_ASTER,
#    1 AVENUE DU GENERAL DE GAULLE, 92141 CLAMART CEDEX, FRANCE.
# ======================================================================

DEBUT(CODE=_F(NOM='SSNV185E',NIV_PUB_WEB='INTERNET',VISU_EFICAS='NON'),DEBUG=_F(SDVERI='OUI'))

# MODELISATION E : X-FEM FISSURE NON-COINCIDENTE PUR - TRACTION (CHAMP ASYMPTOTIQUE DIRICHLET)

#----------------------------------------------
#             MAILLAGE : hexa_3_11_31.mgib
#----------------------------------------------

MAILLAG1=LIRE_MAILLAGE(FORMAT='MED',INFO=1);

MAILLAG1=DEFI_GROUP(reuse =MAILLAG1,
                    MAILLAGE=MAILLAG1,
                    CREA_GROUP_NO=_F(GROUP_MA='VOL'));

MAILLAG1=DEFI_GROUP(reuse =MAILLAG1,
                    MAILLAGE=MAILLAG1,
                    CREA_GROUP_NO=_F(GROUP_MA='SURFSUP'),
                    );


MAILLAG1=DEFI_GROUP(reuse =MAILLAG1,
                 MAILLAGE=MAILLAG1,
                 CREA_GROUP_NO=(_F(NOM='NXFEM',NOEUD=('N501','N502','N503','N504','N505','N506','N1069',
                                                      'N534','N535','N536','N537','N538','N539','N1072',

                                                      'N512','N513','N514','N515','N516','N517','N1070',
                                                      'N545','N546','N547','N548','N549','N550','N1073',

                                                      'N523','N524','N525','N526','N527','N528','N1071',
                                                      'N556','N557','N558','N559','N560','N561','N1074',

                                                      'N1286','N1287','N1288','N1289','N1290','N1291','N1292',
                                                      'N1297','N1298','N1299','N1300','N1301','N1302','N1303')),
                                _F(NOM='NCLA',DIFFE=('VOL','NXFEM')),
                                ),
                 );


#----------------------------------------------
#                   MODELE ET FISSURE
#----------------------------------------------

MODELEIN=AFFE_MODELE(MAILLAGE=MAILLAG1,
                     AFFE=(_F(GROUP_MA=('VOL'),
                              PHENOMENE='MECANIQUE',
                              MODELISATION='3D'),
                           _F(GROUP_MA=('SURFINF','SURFSUP'),
                              PHENOMENE='MECANIQUE',
                              MODELISATION='3D')));

MAILLAG1=MODI_MAILLAGE(reuse =MAILLAG1,
                       MAILLAGE=MAILLAG1,
                       ORIE_PEAU_3D=_F(GROUP_MA=('SURFSUP','SURFINF')),
                       );

LN=FORMULE(NOM_PARA=('X','Y','Z'),VALE='Z-15.');
LT=FORMULE(NOM_PARA=('X','Y','Z'),VALE='-Y+5.');

FISS=DEFI_FISS_XFEM(MODELE=MODELEIN,
                    DEFI_FISS=_F(FONC_LT=LT,FONC_LN=LN),
                    );

MODELEK=MODI_MODELE_XFEM(MODELE_IN=MODELEIN,FISSURE=FISS,INFO=1);


#----------------------------------------------
#                   MATERIAU
#----------------------------------------------

E=100.0E6
nu=0.
rho=7800.
ACIER=DEFI_MATERIAU(ELAS=_F(E=E,NU=nu,RHO=rho));

CHAMPMA1=AFFE_MATERIAU(MAILLAGE=MAILLAG1,
                       MODELE=MODELEK,
                       AFFE=_F(TOUT = 'OUI',
                                MATER=ACIER,
                                ),
                             );

#--------------------------------------------------------
#                   CHARGEMENT : CHAMP AUXILIAIRE MODE I
#--------------------------------------------------------

R = FORMULE(NOM_PARA=('X','Y','Z'),VALE='sqrt((Y-5.)**2+(Z-15.)**2)');
T = FORMULE(NOM_PARA=('X','Y','Z'),VALE='atan2(Z-15.,-Y+5.)');

coef=(1+nu)/(E*sqrt(2.*pi))

OUAUX1 = FORMULE(NOM_PARA=('X','Y','Z'),VALE='-1.*coef*sqrt(R(X,Y,Z))*cos(T(X,Y,Z)/2.)*(3.-4.*nu-cos(T(X,Y,Z)))');
UAUX2 = FORMULE(NOM_PARA=('X','Y','Z'),VALE=' coef*sqrt(R(X,Y,Z))*sin(T(X,Y,Z)/2.)*(3.-4.*nu-cos(T(X,Y,Z)))');
UAUX3 = FORMULE(NOM_PARA=('X','Y','Z'),VALE='0.');

CHF=AFFE_CHAR_MECA_F(MODELE=MODELEK,DDL_IMPO=_F(GROUP_NO=('NCLA','NXFEM'),DX=UAUX3,DY=OUAUX1,DZ=UAUX2));


#----------------------------------------------
#                   RESOLUTION
#----------------------------------------------

L_INS1=DEFI_LIST_REEL(DEBUT=0.0,INTERVALLE=_F(JUSQU_A=3.0,NOMBRE=3));

UTOT1=MECA_STATIQUE(MODELE=MODELEK,
                   CHAM_MATER=CHAMPMA1,
                   EXCIT=(
                          _F(CHARGE=CHF),
                          ),
                   SOLVEUR=_F(   
                            METHODE='MUMPS'),
                   INFO=1,
                   ); 
#------------------------------------------------------------------------
# POST-TRAITEMENT : CALCUL DES SIFS PAR LA METHODE ENERGETIQUE AVEC X-FEM
#------------------------------------------------------------------------

# TEST AVEC PLUSIEURS COURONNES
RI=[2. , 0.666 , 1. , 1. , 1. , 2.1]
RS=[4. , 1.666 , 2. , 3. , 4. , 3.9]

nbc=len(RI)
SIF = [None]*(nbc+1)

for i in range(0,nbc) :

   SIF[i]=CALC_G(RESULTAT=UTOT1,
                 OPTION='CALC_K_G',
                 THETA=_F(FISSURE=FISS,
                          R_INF=RI[i],
                          R_SUP=RS[i]),
                 LISSAGE=_F(LISSAGE_THETA='LAGRANGE',
                            LISSAGE_G='LAGRANGE'),
                 INFO=2);

   IMPR_TABLE(TABLE=SIF[i]);

SIF[nbc]=CALC_G(RESULTAT=UTOT1,
                 OPTION='CALC_K_G',
                 THETA=_F(FISSURE=FISS,),
                 LISSAGE=_F(LISSAGE_THETA='LAGRANGE',
                            LISSAGE_G='LAGRANGE'),
                 INFO=2);

IMPR_TABLE(TABLE=SIF[nbc]);

# SOLUTION ANALYTIQUE
K1REF=1.

VAL_CALC = [1.004702175212   ,
            1.0004649587506  ,
            1.0259390514398  ,
            1.024031446614   ,
            1.0110284954161  ,
            1.0082841137781  ,
            1.0084591357119  ,
            1.0049756962677  ,
            1.0068109486134  ,
            1.0030713437598  ,
            1.004558564649   ,
            1.0003176428473  ,
            1.0035667114335  ,
            0.99937619819423 , ]
            
for i in range(0,nbc+1) :
   TEST_TABLE(TABLE=SIF[i],
              NOM_PARA='K1',
              TYPE_TEST='MAX',
              VALE_CALC=VAL_CALC[i*2+0], VALE_REFE=K1REF,
              CRITERE='RELATIF',
              PRECISION=0.03,    
              REFERENCE='ANALYTIQUE');

   TEST_TABLE(TABLE=SIF[i],
              NOM_PARA='K1',
              TYPE_TEST='MIN',
              VALE_CALC=VAL_CALC[i*2+1], VALE_REFE=K1REF,
              CRITERE='RELATIF',
              PRECISION=0.03,    
              REFERENCE='ANALYTIQUE');

# -------------------------------------------------------------   
#            POST-TRAITEMENT POUR LA VISUALISATION X-FEM   
# -------------------------------------------------------------   

MA_XFEM=POST_MAIL_XFEM(
                       MODELE        = MODELEK,
                       INFO          = 2)

MOD_VISU=AFFE_MODELE(MAILLAGE=MA_XFEM,
                     AFFE=_F(TOUT='OUI',
                              PHENOMENE='MECANIQUE',
                              MODELISATION='3D')) 

RES_XFEM=POST_CHAM_XFEM(MODELE_VISU   = MOD_VISU,
                        RESULTAT      = UTOT1,
                        
                        INFO          = 2)

FIN();
