# MODIF  DATE 30/07/2012   AUTEUR LEFEBVRE J-P.LEFEBVRE 
# TITRE CANTILEVER EN GRANDE ROTATION SOUMISE A UNE PRESSION SUIVEUSE
# ssnv145a.para = tps_job 150 mem_job 512Mo ncpus 1 liste_test S
#            CONFIGURATION MANAGEMENT OF EDF VERSION
# ======================================================================
# COPYRIGHT (C) 1991 - 2012  EDF R&D                  WWW.CODE-ASTER.ORG
# THIS PROGRAM IS FREE SOFTWARE; YOU CAN REDISTRIBUTE IT AND/OR MODIFY
# IT UNDER THE TERMS OF THE GNU GENERAL PUBLIC LICENSE AS PUBLISHED BY
# THE FREE SOFTWARE FOUNDATION; EITHER VERSION 2 OF THE LICENSE, OR
# (AT YOUR OPTION) ANY LATER VERSION.
#
# THIS PROGRAM IS DISTRIBUTED IN THE HOPE THAT IT WILL BE USEFUL, BUT
# WITHOUT ANY WARRANTY; WITHOUT EVEN THE IMPLIED WARRANTY OF
# MERCHANTABILITY OR FITNESS FOR A PARTICULAR PURPOSE. SEE THE GNU
# GENERAL PUBLIC LICENSE FOR MORE DETAILS.
#
# YOU SHOULD HAVE RECEIVED A COPY OF THE GNU GENERAL PUBLIC LICENSE
# ALONG WITH THIS PROGRAM; IF NOT, WRITE TO EDF R&D CODE_ASTER,
#    1 AVENUE DU GENERAL DE GAULLE, 92141 CLAMART CEDEX, FRANCE.
# ======================================================================
#

DEBUT(CODE=_F(NOM='SSNV145A',NIV_PUB_WEB='INTERNET'),DEBUG=_F(SDVERI='OUI'))

#
#
# MODELISATION : COQUE_3D
#
# MAILLAGE     : MEC3QU9H
#

MA1=LIRE_MAILLAGE(FORMAT='MED',  )

MA1=DEFI_GROUP( reuse=MA1,   MAILLAGE=MA1,
                     CREA_GROUP_MA=_F(  NOM = 'TOUT',  TOUT = 'OUI'))

#

MO1=AFFE_MODELE(  MAILLAGE=MA1,
          AFFE=_F( TOUT = 'OUI', MODELISATION = 'COQUE_3D',
          PHENOMENE = 'MECANIQUE') )

#

MAT=DEFI_MATERIAU(   ELAS=_F(  E = 12.E6,  NU = 0.3,  ALPHA = 0.)
                        )

#

CHMAT1=AFFE_MATERIAU(   MAILLAGE=MA1,
                          AFFE=_F(  TOUT = 'OUI',  MATER = MAT)
                        )

#
#

CHA1=AFFE_CHAR_MECA(   MODELE=MO1,

                          DDL_IMPO=_F( GROUP_NO = 'G_41',  DX = 0., DY = 0., DZ = 0.,
                                            DRX = 0., DRY = 0., DRZ = 0.)
                        )

#

CHA2=AFFE_CHAR_MECA(         MODELE=MO1,
                FORCE_COQUE=_F(  TOUT = 'OUI',   PRES = 1.)
                        )

#

CARA1=AFFE_CARA_ELEM(
                               MODELE=MO1,

                                     COQUE=_F(
                                       GROUP_MA = 'TOUT',
                                       EPAIS = 0.1,
                                       COEF_RIGI_DRZ = 1.E-3)
                          )

#
#
########################################################################
#
#

L_INST=DEFI_LIST_REEL(   DEBUT=0.0,
                             INTERVALLE=_F(  JUSQU_A = 26.,  NOMBRE = 26)
                         )

#

D_FONC=DEFI_FONCTION(
                            NOM_PARA='INST',
                                VALE=(
                                        0.,    0.,
                                       1000., 1000.,
                                     )
                         )

#
#

NONLI=STAT_NON_LINE(
                            MODELE=MO1,
                        CHAM_MATER=CHMAT1,
                         CARA_ELEM=CARA1,EXCIT=(
                             _F(
                CHARGE = CHA1), _F(
                CHARGE = CHA2,
                FONC_MULT = D_FONC,
                TYPE_CHARGE = 'SUIV')),
                         COMP_ELAS=_F(
                RELATION = 'ELAS',
                DEFORMATION = 'GROT_GDEP'),
                       CONVERGENCE=_F(
                ITER_GLOB_MAXI = 50),
                         INCREMENT=_F(
                LIST_INST = L_INST),
                            NEWTON=_F(
                REAC_ITER = 1,
                MATRICE = 'TANGENTE')
              )

#
########################################################################
# # #
# # # TESTS COMPARATIFS AVEC LE LOGICIEL SAMCEF
# # #
########################################################################
#
#   PAS DE CHARGE NUMERO 13 : MAXIMUM DU DEP Z AVANT REBROUSSEMENT
#

TEST_RESU(   RESU=_F(  RESULTAT = NONLI,       INST = 13.,
                      NOEUD = 'NO000002',   NOM_CHAM = 'DEPL',
                      CRITERE = 'RELATIF',   PRECISION = 2.2E-2,
                      NOM_CMP = 'DX',        VALE = -9.037)
            )

#

TEST_RESU(   RESU=_F(  RESULTAT = NONLI,       INST = 13.,
                      NOEUD = 'NO000002',   NOM_CHAM = 'DEPL',
                      CRITERE = 'RELATIF',   PRECISION = 0.3E-2,
                      NOM_CMP = 'DZ',        VALE = -8.427)
            )

#

TEST_RESU(   RESU=_F(  RESULTAT = NONLI,       INST = 13.,
                      NOEUD = 'NO000003',   NOM_CHAM = 'DEPL',
                      CRITERE = 'RELATIF',   PRECISION = 2.2E-2,
                      NOM_CMP = 'DX',        VALE = -9.037)
            )

#

TEST_RESU(   RESU=_F(  RESULTAT = NONLI,       INST = 13.,
                      NOEUD = 'NO000003',   NOM_CHAM = 'DEPL',
                      CRITERE = 'RELATIF',   PRECISION = 0.3E-2,
                      NOM_CMP = 'DZ',        VALE = -8.427)
            )

#

TEST_RESU(   RESU=_F(  RESULTAT = NONLI,       INST = 13.,
                      NOEUD = 'NO000043',   NOM_CHAM = 'DEPL',
                      CRITERE = 'RELATIF',   PRECISION = 1.2E-2,
                      NOM_CMP = 'DRY',       VALE = 1.943)
            )

#
#
#   DERNIER PAS DE CHARGE
#

TEST_RESU(   RESU=_F(  RESULTAT = NONLI,       INST = 26.,
                      NOEUD = 'NO000002',   NOM_CHAM = 'DEPL',
                      CRITERE = 'RELATIF',   PRECISION = 1.0E-2,
                      NOM_CMP = 'DX',        VALE = -14.15)
            )

#

TEST_RESU(   RESU=_F(  RESULTAT = NONLI,       INST = 26.,
                      NOEUD = 'NO000002',   NOM_CHAM = 'DEPL',
                      CRITERE = 'RELATIF',   PRECISION = 2.6E-2,
                      NOM_CMP = 'DZ',        VALE = -4.434)
            )

#

TEST_RESU(   RESU=_F(  RESULTAT = NONLI,       INST = 26.,
                      NOEUD = 'NO000003',   NOM_CHAM = 'DEPL',
                      CRITERE = 'RELATIF',   PRECISION = 1.0E-2,
                      NOM_CMP = 'DX',        VALE = -14.15)
            )

#

TEST_RESU(   RESU=_F(  RESULTAT = NONLI,       INST = 26.,
                      NOEUD = 'NO000003',   NOM_CHAM = 'DEPL',
                      CRITERE = 'RELATIF',   PRECISION = 2.6E-2,
                      NOM_CMP = 'DZ',        VALE = -4.434)
            )

#

TEST_RESU(   RESU=_F(  RESULTAT = NONLI,       INST = 26.,
                      NOEUD = 'NO000043',   NOM_CHAM = 'DEPL',
                      CRITERE = 'RELATIF',   PRECISION = 1.0E-2,
                      NOM_CMP = 'DRY',       VALE = 3.098)
            )

#
FIN( )
#
