# MODIF  DATE 06/07/2004   AUTEUR CIBHHLV L.VIVAN 
# TITRE CYLINDRE DANS UN ALESAGE AVEC CONTACT ET FROTTEMENT
#            CONFIGURATION MANAGEMENT OF EDF VERSION
# ======================================================================
# COPYRIGHT (C) 1991 - 2001  EDF R&D                  WWW.CODE-ASTER.ORG
# THIS PROGRAM IS FREE SOFTWARE; YOU CAN REDISTRIBUTE IT AND/OR MODIFY
# IT UNDER THE TERMS OF THE GNU GENERAL PUBLIC LICENSE AS PUBLISHED BY
# THE FREE SOFTWARE FOUNDATION; EITHER VERSION 2 OF THE LICENSE, OR   
# (AT YOUR OPTION) ANY LATER VERSION.                                 
#
# THIS PROGRAM IS DISTRIBUTED IN THE HOPE THAT IT WILL BE USEFUL, BUT 
# WITHOUT ANY WARRANTY; WITHOUT EVEN THE IMPLIED WARRANTY OF          
# MERCHANTABILITY OR FITNESS FOR A PARTICULAR PURPOSE. SEE THE GNU    
# GENERAL PUBLIC LICENSE FOR MORE DETAILS.                            
#
# YOU SHOULD HAVE RECEIVED A COPY OF THE GNU GENERAL PUBLIC LICENSE   
# ALONG WITH THIS PROGRAM; IF NOT, WRITE TO EDF R&D CODE_ASTER,       
#    1 AVENUE DU GENERAL DE GAULLE, 92141 CLAMART CEDEX, FRANCE.      
#
#
# ======================================================================
# CAS_TEST__:SSNV127C
# CALCUL 2D
# MODELE
# MAILLAGE : ELEMENT 2D QUADRANGLES A 4 NOEUDS
# UNITES   : NEWTON , METRE , SECONDE (N,M,S)
#
# TEST ISSU DE LA VALIDATION INDEPENDANTE CONTACT FROTTEMENT
# LES ELEMENTS DE BORD SONT DES SEG2
#

from Macro.recal import EXTRACT
import Numeric
import Gnuplot

DEBUT(CODE=_F( NOM = 'SSNV127C',NIV_PUB_WEB='INTERNET',VISU_EFICAS='NON'),PAR_LOT='NON');



PRE_GIBI();
#_____________________________________________________________________ 
#                                                       
#                    LECTURE DE SSNV127C.MGIB           
#_____________________________________________________________________ 
#                                                       
#


SSNV127C=LIRE_MAILLAGE();
#                                                       
#


SSNV127C=DEFI_GROUP(reuse =SSNV127C,
                    MAILLAGE=SSNV127C,
                    CREA_GROUP_NO=(_F(GROUP_MA='CC4',),
                                   _F(GROUP_MA='AD1',),
                                   _F(GROUP_MA='AD2',),
                                   _F(GROUP_MA='AD3',),
                                   _F(GROUP_MA='BD3',),
                                   _F(GROUP_MA='AD4',),
                                   _F(GROUP_MA='BD4',),
                                   _F(GROUP_MA='BCC2',
                                      OPTION='NOEUD_ORDO',
                                      NOM='RELEVE',
                                      GROUP_NO_ORIG='A1',
                                      GROUP_NO_EXTR='B2',),),);
#                                                       
#_____________________________________________________________________ 
#                                                       
#                    DEFINITION DU MODELE               
#_____________________________________________________________________ 
#                                                       
#


MO=AFFE_MODELE(MAILLAGE=SSNV127C,
               AFFE=_F(TOUT='OUI',
                       PHENOMENE='MECANIQUE',
                       MODELISATION='C_PLAN',),);

SSNV127C=MODI_MAILLAGE(reuse =SSNV127C,
                       MAILLAGE=SSNV127C,
                       ORIE_PEAU_2D=_F(GROUP_MA='BCC1',),
                       MODELE=MO,);

SSNV127C=MODI_MAILLAGE(reuse =SSNV127C,
                       MAILLAGE=SSNV127C,
                       ORIE_PEAU_2D=_F(GROUP_MA='BCC2',),
                       MODELE=MO,);
#_____________________________________________________________________ 
#                                                       
#                    DEFINITION DES MATERIAUX           
#_____________________________________________________________________ 
#                                                       
#


MAT1=DEFI_MATERIAU(ELAS=_F(E=2.10000000000E11,
                           NU=0.29999999999999999,),);
#                                                       
#


CHMAT=AFFE_MATERIAU(MAILLAGE=SSNV127C,
                    AFFE=_F(GROUP_MA='SURFF',
                            MATER=MAT1,),);
#_____________________________________________________________________ 
#                                                       
#                    AFFECTATION DES CONDITIONS AUX LIMITES            
#                       ET DU CHARGEMENT                
#_____________________________________________________________________ 
#                                                       
#


CHA1=AFFE_CHAR_MECA(MODELE=MO,
                    DDL_IMPO=(_F(GROUP_NO='CC4',
                                 DX=0.0,
                                 DY=0.0,),
                              _F(GROUP_NO='AD1',
                                 DX=0.0,),
                              _F(GROUP_NO='AD2',
                                 DX=0.0,),
                              _F(GROUP_NO='AD3',
                                 DX=0.0,),
                              _F(GROUP_NO='AD4',
                                 DX=0.0,),
                              _F(GROUP_NO='BD3',
                                 DX=0.0,),
                              _F(GROUP_NO='BD4',
                                 DX=0.0,),),
                    FORCE_NODALE=_F(GROUP_NO='O2',
                                    FY=-9.37500E5,),);
#                                                       
#


CHA2=AFFE_CHAR_MECA(MODELE=MO,
                    CONTACT=_F(METHODE='PENALISATION',
                               E_T=6.E9,
                               FROTTEMENT='COULOMB',
                               COULOMB=0.40000000000000002,
                               GROUP_MA_MAIT='BCC1',
                               GROUP_MA_ESCL='BCC2',
                               COEF_MATR_FROT=0.3,
                               ),);
#_____________________________________________________________________ 
#                                                       
#               DEFINITION DES FONCTIONS TEMPORELLES    
#_____________________________________________________________________ 
#                                                       
#


RAMPE=DEFI_FONCTION(NOM_PARA='INST',
                    VALE=(0.0,0.0,1.0,1.0,),
                    PROL_DROITE='LINEAIRE',
                    PROL_GAUCHE='LINEAIRE',);

L_INST=DEFI_LIST_REEL(DEBUT=0.0,
                      INTERVALLE=_F(JUSQU_A=1.0,
                                    NOMBRE=1,),);
#_____________________________________________________________________ 
#                                                       
#                            RESOLUTION                 
#_____________________________________________________________________ 
#                                                       
#


U=STAT_NON_LINE(MODELE=MO,
                CHAM_MATER=CHMAT,
                EXCIT=(_F(CHARGE=CHA1,
                          FONC_MULT=RAMPE,),
                       _F(CHARGE=CHA2,),),
                COMP_ELAS=_F(RELATION='ELAS',),
                INCREMENT=_F(LIST_INST=L_INST,),
                NEWTON=_F(MATRICE='TANGENTE',
                          REAC_ITER=1),
                SOLVEUR=_F(METHODE='LDLT'),
                CONVERGENCE=_F(ITER_GLOB_MAXI=50),
                );

U=CALC_ELEM(reuse =U,
            MODELE=MO,
            CHAM_MATER=CHMAT,
            OPTION=('SIEF_ELNO_ELGA'),
            RESULTAT=U,);
#                                                       
#

TPRESS=POST_RELEVE_T(ACTION=_F(INTITULE='PRESS',
                              GROUP_NO='RELEVE',
                              RESULTAT=U,
                              INST=1.,
                              NOM_CHAM='SIEF_ELNO_ELGA',
                              NOM_CMP='SIXX',
                              REPERE='POLAIRE',
                              OPERATION='EXTRACTION',),);


TCONT=POST_RELEVE_T(ACTION=_F(INTITULE='CONT',
                              GROUP_NO='RELEVE',
                              RESULTAT=U,
                              INST=1.,
                              NOM_CHAM='VALE_CONT',
                              TOUT_CMP='OUI',
                              OPERATION='EXTRACTION',),);

IMPR_TABLE(TABLE=TPRESS)
IMPR_TABLE(TABLE=TCONT)


#_____________________________________________________________________ 
#                                                       
#                  TRACER DE COURBES INTERACTIF
#_____________________________________________________________________ 
#                                                       
#

# coor = EXTRACT(TPRESS,'COOR_X','COOR_Y')
# cos = Numeric.arctan(coor[:,0]/coor[:,1])*-180./Numeric.pi
# 
# print cos
# 
# press = EXTRACT(TPRESS,'ABSC_CURV','SIXX')
# press[:,0]=cos
# print press
# 
# cont  = EXTRACT(TCONT,'ABSC_CURV','CONTACT')
# cont[:,0]=cos
# cont[:,1]=-1.E6*cont[:,1]
# 
# graphe = Gnuplot.Gnuplot(persist=1)
# Gnuplot.GnuplotOpts.prefer_inline_data=1
# graphe('set data style linespoints')
# graphe('set grid')
# graphe.xlabel('ABS')
# graphe.ylabel('PRESS')
# graphe.plot(Gnuplot.Data(press,title='Pression'),
#             Gnuplot.Data(cont,title='Indicateur'))
# 




#_____________________________________________________________________ 
#                                                       
# TEST DE LA CONFORMITE AVEC LA SOLUTION DE REFERENCE ANALYTIQUE       
#_____________________________________________________________________ 
#                                                       
#


#
# VALEUR DE PRESSION
#


TEST_TABLE(TABLE=TPRESS,
           FILTRE=(_F(NOM_PARA='INST',
                      VALE=1.,),
                   _F(NOM_PARA='NOEUD',
                      VALE_K='N783',),),
           NOM_PARA='SIXX',
           VALE=-178.13E5,
           PRECISION=0.0482,
           REFERENCE='ANALYTIQUE',);

TEST_TABLE(TABLE=TPRESS,
           FILTRE=(_F(NOM_PARA='INST',
                      VALE=1.,),
                   _F(NOM_PARA='NOEUD',
                      VALE_K='N782',),),
           NOM_PARA='SIXX',
           VALE=-178.13E5,
           PRECISION=0.1075,
           REFERENCE='ANALYTIQUE',);

TEST_TABLE(TABLE=TPRESS,
           FILTRE=(_F(NOM_PARA='INST',
                      VALE=1.,),
                   _F(NOM_PARA='NOEUD',
                      VALE_K='N781',),),
           NOM_PARA='SIXX',
           VALE=-177.50E5,
           PRECISION=0.1264,
           REFERENCE='ANALYTIQUE',);

TEST_TABLE(TABLE=TPRESS,
           FILTRE=(_F(NOM_PARA='INST',
                      VALE=1.,),
                   _F(NOM_PARA='NOEUD',
                      VALE_K='N780',),),
           NOM_PARA='SIXX',
           VALE=-176.88E5,
           PRECISION=0.1243,
           REFERENCE='ANALYTIQUE',);

TEST_TABLE(TABLE=TPRESS,
           FILTRE=(_F(NOM_PARA='INST',
                      VALE=1.,),
                   _F(NOM_PARA='NOEUD',
                      VALE_K='N774',),),
           NOM_PARA='SIXX',
           VALE=-175.94E5,
           PRECISION=0.12081,
           REFERENCE='ANALYTIQUE',);

TEST_TABLE(TABLE=TPRESS,
           FILTRE=(_F(NOM_PARA='INST',
                      VALE=1.,),
                   _F(NOM_PARA='NOEUD',
                      VALE_K='N775',),),
           NOM_PARA='SIXX',
           VALE=-174.70E5,
           PRECISION=0.1186,
           REFERENCE='ANALYTIQUE',);

TEST_TABLE(TABLE=TPRESS,
           FILTRE=(_F(NOM_PARA='INST',
                      VALE=1.,),
                   _F(NOM_PARA='NOEUD',
                      VALE_K='N776',),),
           NOM_PARA='SIXX',
           VALE=-173.12E5,
           PRECISION=0.10682,
           REFERENCE='ANALYTIQUE',);

TEST_TABLE(TABLE=TPRESS,
           FILTRE=(_F(NOM_PARA='INST',
                      VALE=1.,),
                   _F(NOM_PARA='NOEUD',
                      VALE_K='N777',),),
           NOM_PARA='SIXX',
           VALE=-171.25E5,
           PRECISION=0.0982,
           REFERENCE='ANALYTIQUE',);

TEST_TABLE(TABLE=TPRESS,
           FILTRE=(_F(NOM_PARA='INST',
                      VALE=1.,),
                   _F(NOM_PARA='NOEUD',
                      VALE_K='N788',),),
           NOM_PARA='SIXX',
           VALE=-169.06E5,
           PRECISION=0.0793,
           REFERENCE='ANALYTIQUE',);

TEST_TABLE(TABLE=TPRESS,
           FILTRE=(_F(NOM_PARA='INST',
                      VALE=1.,),
                   _F(NOM_PARA='NOEUD',
                      VALE_K='N787',),),
           NOM_PARA='SIXX',
           VALE=-166.56E5,
           PRECISION=0.07,
           REFERENCE='ANALYTIQUE',);

TEST_TABLE(TABLE=TPRESS,
           FILTRE=(_F(NOM_PARA='INST',
                      VALE=1.,),
                   _F(NOM_PARA='NOEUD',
                      VALE_K='N786',),),
           NOM_PARA='SIXX',
           VALE=-163.43E5,
           PRECISION=0.0482,
           REFERENCE='ANALYTIQUE',);

TEST_TABLE(TABLE=TPRESS,
           FILTRE=(_F(NOM_PARA='INST',
                      VALE=1.,),
                   _F(NOM_PARA='NOEUD',
                      VALE_K='N785',),),
           NOM_PARA='SIXX',
           VALE=-159.37E5,
           PRECISION=0.0297,
           REFERENCE='ANALYTIQUE',);

TEST_TABLE(TABLE=TPRESS,
           FILTRE=(_F(NOM_PARA='INST',
                      VALE=1.,),
                   _F(NOM_PARA='NOEUD',
                      VALE_K='N800',),),
           NOM_PARA='SIXX',
           VALE=-154.06E5,
           PRECISION=0.0153,
           REFERENCE='ANALYTIQUE',);

TEST_TABLE(TABLE=TPRESS,
           FILTRE=(_F(NOM_PARA='INST',
                      VALE=1.,),
                   _F(NOM_PARA='NOEUD',
                      VALE_K='N805',),),
           NOM_PARA='SIXX',
           VALE=-147.81E5,
           PRECISION=0.007,
           REFERENCE='ANALYTIQUE',);

TEST_TABLE(TABLE=TPRESS,
           FILTRE=(_F(NOM_PARA='INST',
                      VALE=1.,),
                   _F(NOM_PARA='NOEUD',
                      VALE_K='N806',),),
           NOM_PARA='SIXX',
           VALE=-140.31E5,
           PRECISION=0.026,
           REFERENCE='ANALYTIQUE',);

TEST_TABLE(TABLE=TPRESS,
           FILTRE=(_F(NOM_PARA='INST',
                      VALE=1.,),
                   _F(NOM_PARA='NOEUD',
                      VALE_K='N807',),),
           NOM_PARA='SIXX',
           VALE=-130.94E5,
           PRECISION=0.026,
           REFERENCE='ANALYTIQUE',);

TEST_TABLE(TABLE=TPRESS,
           FILTRE=(_F(NOM_PARA='INST',
                      VALE=1.,),
                   _F(NOM_PARA='NOEUD',
                      VALE_K='N819',),),
           NOM_PARA='SIXX',
           VALE=-111.69E5,
           PRECISION=0.1117,
           REFERENCE='ANALYTIQUE',);

TEST_TABLE(TABLE=TPRESS,
           FILTRE=(_F(NOM_PARA='INST',
                      VALE=1.,),
                   _F(NOM_PARA='NOEUD',
                      VALE_K='N820',),),
           NOM_PARA='SIXX',
           VALE=-105.93E5,
           PRECISION=0.0261,
           REFERENCE='ANALYTIQUE',);


#
# ADHERENT OU GLISSANT
#
TEST_TABLE(TABLE=TCONT,
           FILTRE=(_F(NOM_PARA='INST',
                      VALE=1.,),
                   _F(NOM_PARA='NOEUD',
                      VALE_K='N787',),),
           NOM_PARA='CONT',
           VALE=2.,
           PRECISION=1.E-5,
           REFERENCE='NON_REGRESSION',
           VERSION='V6.3.22',);

TEST_TABLE(TABLE=TCONT,
           FILTRE=(_F(NOM_PARA='INST',
                      VALE=1.,),
                   _F(NOM_PARA='NOEUD',
                      VALE_K='N786',),),
           NOM_PARA='CONT',
           VALE=2.,
           PRECISION=1.E-5,
           REFERENCE='NON_REGRESSION',
           VERSION='V6.3.22',);


FIN();
