# TITRE ROTATION ET PRESSION 3D GRANDES DEFORMATIONS (LOI LINEAIRE)
# ======================================================================
# COPYRIGHT (C) 1991 - 2012  EDF R&D                  WWW.CODE-ASTER.ORG
# THIS PROGRAM IS FREE SOFTWARE; YOU CAN REDISTRIBUTE IT AND/OR MODIFY
# IT UNDER THE TERMS OF THE GNU GENERAL PUBLIC LICENSE AS PUBLISHED BY
# THE FREE SOFTWARE FOUNDATION; EITHER VERSION 2 OF THE LICENSE, OR
# (AT YOUR OPTION) ANY LATER VERSION.
#
# THIS PROGRAM IS DISTRIBUTED IN THE HOPE THAT IT WILL BE USEFUL, BUT
# WITHOUT ANY WARRANTY; WITHOUT EVEN THE IMPLIED WARRANTY OF
# MERCHANTABILITY OR FITNESS FOR A PARTICULAR PURPOSE. SEE THE GNU
# GENERAL PUBLIC LICENSE FOR MORE DETAILS.
#
# YOU SHOULD HAVE RECEIVED A COPY OF THE GNU GENERAL PUBLIC LICENSE
# ALONG WITH THIS PROGRAM; IF NOT, WRITE TO EDF R&D CODE_ASTER,
#    1 AVENUE DU GENERAL DE GAULLE, 92141 CLAMART CEDEX, FRANCE.
# ======================================================================


DEBUT(CODE=_F(NIV_PUB_WEB='INTERNET'), DEBUG=_F(SDVERI='OUI'))

MA=LIRE_MAILLAGE()

MO=AFFE_MODELE(

                MAILLAGE=MA,


                AFFE=_F(
                TOUT = 'OUI',
                PHENOMENE = 'MECANIQUE',
                MODELISATION = '3D')
              )

ACIER=DEFI_MATERIAU(

               ELAS=_F( E = 200000.,  NU = 0.3)
              )

CHP_MATE=AFFE_MATERIAU(

                MAILLAGE=MA,

                AFFE=_F(
                TOUT = 'OUI',
                MATER = ACIER)
              )

CHR_PLAN=AFFE_CHAR_MECA(

               MODELE=MO,

                DDL_IMPO=_F( NOEUD = ('NO1', 'NO2', 'NO3', 'NO4', 'NO5', 'NO6', 'NO7', 'NO8',), DZ = 0.)
              )

INSTANTS=DEFI_LIST_REEL(

               DEBUT=0.0,INTERVALLE=(

                _F( JUSQU_A = 1.,   NOMBRE = 5),
                _F( JUSQU_A = 2.,   NOMBRE = 2))
              )

# CALCUL DE LA ROTATION RIGIDE

ROT_Xa = FORMULE(NOM_PARA='INST',VALE='- 1000. * sin(INST*pi/2.)')

ROT_Ya = FORMULE(NOM_PARA='INST',VALE='- 1000. * (1. - cos(INST*pi/2.))')

ROT_X=CALC_FONC_INTERP(
                 FONCTION=ROT_Xa,
                LIST_PARA=INSTANTS,
              NOM_PARA='INST',
              PROL_GAUCHE='EXCLU',
               PROL_DROITE='EXCLU',
                 INTERPOL='NON'
             )

ROT_Y=CALC_FONC_INTERP(
                 FONCTION=ROT_Ya,
                LIST_PARA=INSTANTS,
              NOM_PARA='INST',
              PROL_GAUCHE='EXCLU',
               PROL_DROITE='EXCLU',
                 INTERPOL='NON'
             )

ZERO=DEFI_CONSTANTE(

              VALE=0.
             )

CHR_ROTA=AFFE_CHAR_MECA_F(

               MODELE=MO,DDL_IMPO=(

               _F( NOEUD = ('NO3', 'NO7',),  DX = ZERO,     DY = ZERO),
               _F( NOEUD = ('NO1', 'NO5',),  DX = ROT_X,    DY = ROT_Y))
             )

V=STAT_NON_LINE(
                MODELE=MO,
                CHAM_MATER=CHP_MATE,
                EXCIT=( _F( CHARGE = CHR_PLAN),
                        _F( CHARGE = CHR_ROTA)),
                COMPORTEMENT=_F( RELATION = 'ELAS',
                              DEFORMATION = 'GROT_GDEP'),
                INCREMENT=_F(  LIST_INST = INSTANTS,
                               INST_FIN = 1.),
                NEWTON=_F( MATRICE = 'TANGENTE',
                           REAC_ITER = 1),
                CONVERGENCE=_F(  RESI_GLOB_MAXI = 1.E-3,
                                 ITER_GLOB_MAXI = 50),
                RECH_LINEAIRE=_F( ITER_LINE_MAXI = 4)
              )

# CHARGEMENT DE PRESSION DANS LA CONFIGURATION DEFORMEE


F_CHAR=DEFI_FONCTION(

                  NOM_PARA='INST',
               PROL_GAUCHE='CONSTANT',
                PROL_DROITE='CONSTANT',
                      VALE=(1.,0.,  2.,1.,)
              )

CHR_PRES=AFFE_CHAR_MECA(

                 MODELE=MO,
               PRES_REP=_F( MAILLE = 'MA2',  PRES = -26610.31)
              )

LIAISON=AFFE_CHAR_MECA(

                 MODELE=MO,DDL_IMPO=(

                _F( NOEUD = ('NO3', 'NO7',),  DX = 0., DY = 0.),
                _F( NOEUD = ('NO1', 'NO5',),  DY = 0.))
              )

V=STAT_NON_LINE( reuse=V,
                            MODELE=MO,
                        CHAM_MATER=CHP_MATE,EXCIT=(
                             _F(
                CHARGE = CHR_PLAN), _F(
                CHARGE = LIAISON,
                TYPE_CHARGE = 'DIDI'), _F(
                CHARGE = CHR_PRES,
                TYPE_CHARGE = 'SUIV',
                FONC_MULT = F_CHAR)),
                         ETAT_INIT=_F(
                EVOL_NOLI = V),
                         COMPORTEMENT=_F(
                RELATION = 'ELAS',
                DEFORMATION = 'GROT_GDEP'),
                         INCREMENT=_F(
                LIST_INST = INSTANTS,
                INST_FIN = 1.5),
                            NEWTON=_F(
                MATRICE = 'TANGENTE',
                REAC_ITER = 1),
                       CONVERGENCE=_F(
                RESI_GLOB_RELA = 1.E-5,
                ITER_GLOB_MAXI = 20),
                     RECH_LINEAIRE=_F(
                ITER_LINE_MAXI = 5)
              )

# REPRISE POUR VERIFIER LE MOT-CLE GEOMETRIE: 'DEFORMEE'
# S'IL N'EST PAS PRESENT, IL FAUT 11 ITERATIONS POUR CV.
# AVEC ITER_GLOB_MAXI: 7, ON TESTE EFFECTIVEMENT.

V=STAT_NON_LINE( reuse=V,
                            MODELE=MO,
                        CHAM_MATER=CHP_MATE,EXCIT=(
                             _F(
                CHARGE = CHR_PLAN), _F(
                CHARGE = LIAISON,
                TYPE_CHARGE = 'DIDI'), _F(
                CHARGE = CHR_PRES,
                TYPE_CHARGE = 'SUIV',
                FONC_MULT = F_CHAR)),
                         ETAT_INIT=_F(
                EVOL_NOLI = V),
                         COMPORTEMENT=_F(
                RELATION = 'ELAS',
                DEFORMATION = 'GROT_GDEP'),
                         INCREMENT=_F(
                LIST_INST = INSTANTS),
                            NEWTON=_F(
                MATRICE = 'TANGENTE',
                REAC_ITER = 1),
                       CONVERGENCE=_F(
                RESI_GLOB_RELA = 1.E-5,
                ITER_GLOB_MAXI = 10),
                     RECH_LINEAIRE=_F(
                ITER_LINE_MAXI = 5)
              )

# POST-TRAITEMENT

V=CALC_CHAMP(
             reuse=V,
                RESULTAT=V,
                  FORCE='REAC_NODA',
             )

V=CALC_CHAMP(
             reuse=V,
                RESULTAT=V,
                  DEFORMATION=('EPSG_ELNO')
             )


TEST_RESU(RESU=(_F(NUME_ORDRE=7,
                   RESULTAT=V,
                   NOM_CHAM='DEPL',
                   NOEUD='NO2',
                   NOM_CMP='DX',
                   VALE_CALC=-1953.93919731,
                   VALE_REFE=-1953.9400000000001,
                   REFERENCE = 'ANALYTIQUE',
                   PRECISION=1.E-3,
                   ),
                _F(NUME_ORDRE=7,
                   RESULTAT=V,
                   NOM_CHAM='DEPL',
                   NOEUD='NO2',
                   NOM_CMP='DY',
                   VALE_CALC=100.000008366,
                   VALE_REFE=100.0,
                   REFERENCE = 'ANALYTIQUE',
                   PRECISION=1.E-3,
                   ),
                _F(NUME_ORDRE=7,
                   POINT=1,
                   RESULTAT=V,
                   NOM_CHAM='SIEF_ELGA',
                   NOM_CMP='SIXX',
                   VALE_CALC=5.70035756396E-06,
                   VALE_REFE=0.0,
                   CRITERE='ABSOLU',
                   REFERENCE = 'ANALYTIQUE',
                   PRECISION=1.0,
                   MAILLE='MA1',),
                _F(NUME_ORDRE=7,
                   POINT=1,
                   RESULTAT=V,
                   NOM_CHAM='SIEF_ELGA',
                   NOM_CMP='SIYY',
                   VALE_CALC=26610.3100462,
                   VALE_REFE=2.6610310000000001E4,
                   REFERENCE = 'ANALYTIQUE',
                   PRECISION=1.E-3,
                   MAILLE='MA1',),
                _F(NUME_ORDRE=7,
                   POINT=1,
                   RESULTAT=V,
                   NOM_CHAM='SIEF_ELGA',
                   NOM_CMP='SIZZ',
                   VALE_CALC=6597.59743364,
                   VALE_REFE=6597.6000000000004,
                   REFERENCE = 'ANALYTIQUE',
                   PRECISION=1.E-3,
                   MAILLE='MA1',),
                _F(NUME_ORDRE=7,
                   POINT=1,
                   RESULTAT=V,
                   NOM_CHAM='SIEF_ELGA',
                   NOM_CMP='SIXY',
                   VALE_CALC=8.05728508528E-12,
                   VALE_REFE=0.0,
                   CRITERE='ABSOLU',
                   REFERENCE = 'ANALYTIQUE',
                   PRECISION=1.0,
                   MAILLE='MA1',),
                _F(NUME_ORDRE=7,
                   POINT=1,
                   RESULTAT=V,
                   NOM_CHAM='SIEF_ELGA',
                   NOM_CMP='SIXZ',
                   VALE_CALC=0.,
                   VALE_REFE=0.0,
                   CRITERE='ABSOLU',
                   REFERENCE = 'ANALYTIQUE',
                   PRECISION=1.0,
                   MAILLE='MA1',),
                _F(NUME_ORDRE=7,
                   POINT=1,
                   RESULTAT=V,
                   NOM_CHAM='SIEF_ELGA',
                   NOM_CMP='SIYZ',
                   VALE_CALC=0.,
                   VALE_REFE=0.0,
                   CRITERE='ABSOLU',
                   REFERENCE = 'ANALYTIQUE',
                   PRECISION=1.0,
                   MAILLE='MA1',),
                _F(NUME_ORDRE=7,
                   RESULTAT=V,
                   NOM_CHAM='REAC_NODA',
                   NOEUD='NO3',
                   NOM_CMP='DX',
                   VALE_CALC=0.,
                   VALE_REFE=0.0,
                   CRITERE='ABSOLU',
                   REFERENCE = 'ANALYTIQUE',
                   PRECISION=1.6,),
                _F(NUME_ORDRE=7,
                   RESULTAT=V,
                   NOM_CHAM='REAC_NODA',
                   NOEUD='NO3',
                   NOM_CMP='DY',
                   VALE_CALC=-6346154451.4,
                   VALE_REFE=-6.346200000E9,
                   REFERENCE = 'ANALYTIQUE',
                   PRECISION=1.E-3,
                   ),
                _F(NUME_ORDRE=7,
                   RESULTAT=V,
                   NOM_CHAM='REAC_NODA',
                   NOEUD='NO3',
                   NOM_CMP='DZ',
                   VALE_CALC=-1730769383.16,
                   VALE_REFE=-1.730700000E9,
                   REFERENCE = 'ANALYTIQUE',
                   PRECISION=1.E-3,
                   ),
                _F(NUME_ORDRE=7,
                   RESULTAT=V,
                   NOM_CHAM='EPSG_ELNO',
                   NOEUD='NO8',
                   NOM_CMP='EPXX',
                   VALE_CALC=0.105000009203,
                   VALE_REFE=0.105,
                   REFERENCE = 'ANALYTIQUE',
                   PRECISION=1.E-3,
                   MAILLE='MA1',),
                _F(NUME_ORDRE=7,
                   RESULTAT=V,
                   NOM_CHAM='EPSG_ELNO',
                   NOEUD='NO8',
                   NOM_CMP='EPYY',
                   VALE_CALC=-0.0450000039196,
                   VALE_REFE=-0.044999999999999998,
                   REFERENCE = 'ANALYTIQUE',
                   PRECISION=1.E-3,
                   MAILLE='MA1',),
                _F(NUME_ORDRE=7,
                   RESULTAT=V,
                   NOM_CHAM='EPSG_ELNO',
                   NOEUD='NO8',
                   NOM_CMP='EPZZ',
                   VALE_CALC=0.,
                   VALE_REFE=0.0,
                   REFERENCE = 'ANALYTIQUE',
                   PRECISION=1.0000000000000001E-05,
                   CRITERE='ABSOLU',
                   MAILLE='MA1',),
                _F(NUME_ORDRE=7,
                   RESULTAT=V,
                   NOM_CHAM='EPSG_ELNO',
                   NOEUD='NO8',
                   NOM_CMP='EPXY',
                   VALE_CALC=0.,
                   VALE_REFE=0.0,
                   REFERENCE = 'ANALYTIQUE',
                   PRECISION=1.0000000000000001E-05,
                   CRITERE='ABSOLU',
                   MAILLE='MA1',),
                _F(NUME_ORDRE=7,
                   RESULTAT=V,
                   NOM_CHAM='EPSG_ELNO',
                   NOEUD='NO8',
                   NOM_CMP='EPXZ',
                   VALE_CALC=0.,
                   VALE_REFE=0.0,
                   REFERENCE = 'ANALYTIQUE',
                   PRECISION=1.0000000000000001E-05,
                   CRITERE='ABSOLU',
                   MAILLE='MA1',),
                _F(NUME_ORDRE=7,
                   RESULTAT=V,
                   NOM_CHAM='EPSG_ELNO',
                   NOEUD='NO8',
                   NOM_CMP='EPYZ',
                   VALE_CALC=0.,
                   VALE_REFE=0.0,
                   REFERENCE = 'ANALYTIQUE',
                   PRECISION=1.0000000000000001E-05,
                   CRITERE='ABSOLU',
                   MAILLE='MA1',),
                ),
          )

FIN()
#
#
