# MODIF  DATE 16/09/2008   AUTEUR LEFEBVRE J-P.LEFEBVRE 
# TITRE CYLINDRE EN INCOMPRESSIBLE GRANDES DEFORMATIONS (HEXA20) 3D
#            CONFIGURATION MANAGEMENT OF EDF VERSION
# ======================================================================
# COPYRIGHT (C) 1991 - 2003  EDF R&D                  WWW.CODE-ASTER.ORG
# THIS PROGRAM IS FREE SOFTWARE; YOU CAN REDISTRIBUTE IT AND/OR MODIFY
# IT UNDER THE TERMS OF THE GNU GENERAL PUBLIC LICENSE AS PUBLISHED BY
# THE FREE SOFTWARE FOUNDATION; EITHER VERSION 2 OF THE LICENSE, OR
# (AT YOUR OPTION) ANY LATER VERSION.
#
# THIS PROGRAM IS DISTRIBUTED IN THE HOPE THAT IT WILL BE USEFUL, BUT
# WITHOUT ANY WARRANTY; WITHOUT EVEN THE IMPLIED WARRANTY OF
# MERCHANTABILITY OR FITNESS FOR A PARTICULAR PURPOSE. SEE THE GNU
# GENERAL PUBLIC LICENSE FOR MORE DETAILS.
#
# YOU SHOULD HAVE RECEIVED A COPY OF THE GNU GENERAL PUBLIC LICENSE
# ALONG WITH THIS PROGRAM; IF NOT, WRITE TO EDF R&D CODE_ASTER,
#    1 AVENUE DU GENERAL DE GAULLE, 92141 CLAMART CEDEX, FRANCE.
# ======================================================================
#
# ----------------------------------------------------------------------
#
# CYLINDRE CREUX EN INCOMPRESSIBLE GRANDES DEFORMATIONS(NU=0.4999)
# SOUS DEPLACEMENT RADIAL (U0=6.10E-5)
#
# MODELISATION : ELEMENTS MECANIQUE 3D INCOMP.(HEXA20+QUAD8)
# MAILLAGE     : GIBI
# ----------------------------------------------------------------------
# GROUPES DE NOEUDS ET MAILLES :
# GRNO: A B C D E F  NOEUMI
# GRMA: FACEEF     FACEAE   FACEAB   FACSUP   FACINF VOLUME
# ----------------------------------------------------------------------
#

DEBUT(CODE=_F(  NOM = 'SSNV112A',NIV_PUB_WEB='INTERNET'),
      MEMOIRE=_F(DYNAMIQUE=400),
)
PRE_GIBI ();
M=LIRE_MAILLAGE( )

MO=AFFE_MODELE( MAILLAGE=M,
                VERIF='MAILLE',
                AFFE=_F(  GROUP_MA = ('VOLUME','FACEEF','FACEAE','FACEAB','FACSUP','FACINF'),
                          PHENOMENE = 'MECANIQUE',
                          MODELISATION = '3D_INCO_GD' ))

M=MODI_MAILLAGE( reuse=M,
                 MAILLAGE=M,
                 ORIE_PEAU_3D=_F(  GROUP_MA = ( 'FACEEF', 'FACEAE', ),  )
                      )
M = DEFI_GROUP( reuse         = M,
                MAILLAGE      = M,
                CREA_GROUP_NO = _F (GROUP_MA = ('FACEAB','FACSUP','FACINF'),),)
MA=DEFI_MATERIAU( ELAS=_F(  E = 200000.,
                            NU = 0.49999,
                            ALPHA = 0.,    ),
                  ECRO_LINE=_F( D_SIGM_EPSI=1000.,
                                SY = 1.E9),)

CM=AFFE_MATERIAU( MAILLAGE=M,
                  AFFE=_F(  TOUT = 'OUI',
                  MATER = MA,            ))

CH=AFFE_CHAR_MECA(MODELE=MO,
                  DDL_IMPO=(
                         _F(  GROUP_NO = 'FACEAB',   DX = 0.,     ),
                         _F(  GROUP_NO = 'FACSUP',   DZ = 0.,     ),
                         _F(  GROUP_NO = 'FACINF',   DZ = 0.,     )),
                  FACE_IMPO=(_F(  GROUP_MA = 'FACEEF',   DNOR = 0.,   ),
                             _F(  GROUP_MA = 'FACEAE',   DNOR = -6.E-5,   ),),
                  )
INSTANTS = DEFI_LIST_REEL (
             DEBUT= 0.,
             INTERVALLE= _F(JUSQU_A= 1.,
                            NOMBRE=1),
             ) ;


RAMPE    = DEFI_FONCTION (
             NOM_PARA= 'INST',
             VALE    = (
               0., 0.,
               1., 1.,
               ),
             ) ;
EVOL   = STAT_NON_LINE (
             MODELE= MO,
             CHAM_MATER= CM,
             EXCIT= (_F(CHARGE= CH,
                        FONC_MULT= RAMPE),
                     ),
             INCREMENT= _F(
               LIST_INST= INSTANTS,
               ),
             COMP_INCR= _F(
               RELATION= 'VMIS_ISOT_LINE',
               DEFORMATION='SIMO_MIEHE'),
             SOLVEUR=_F(METHODE='MUMPS',PCENT_PIVOT=100),
             NEWTON= _F(
               REAC_ITER= 1,
               ),
             CONVERGENCE=_F(RESI_REFE_RELA=1.E-3,
                            SIGM_REFE = 60 ,
                            EPSI_REFE = 3.E-4),
            ) ;
EVOL = CALC_ELEM (reuse=EVOL,
              RESULTAT= EVOL,

              OPTION= (
               'SIEF_ELNO_ELGA',
               'EQUI_ELNO_SIGM',
#                'ERRE_ELEM_SIGM',
#                'ERRE_ELNO_ELEM',
           ),   ) ;

EVOL = CALC_NO (reuse=EVOL,
                RESULTAT= EVOL,
                 OPTION  = (
               'SIEF_NOEU_ELGA',
               'EQUI_NOEU_SIGM',
                ),
              ) ;
#--------------------------------------------------------------
#       COMPARAISON DES RESULTATS A LA SOLUTION ANALYTIQUE
#        POUR UN  SOLIDE INCOMPRESSIBLE NU = 0.5
#---------------------------------------------------------------
TEST_RESU(RESU=(
#     DEPLACEMENTS
         _F(  RESULTAT = EVOL, INST = 1., NOM_CHAM = 'DEPL',  CRITERE = 'ABSOLU',   PRECISION = 1.E-5,
         GROUP_NO = 'A',     NOM_CMP = 'DX',            VALE = 0., REFERENCE = 'ANALYTIQUE'),
         _F(  RESULTAT = EVOL, INST = 1., NOM_CHAM = 'DEPL',  CRITERE = 'RELATIF',   PRECISION = 1.E-3,
         GROUP_NO = 'A',     NOM_CMP = 'DY',            VALE = 6.E-5, REFERENCE = 'ANALYTIQUE'),

        _F(  RESULTAT = EVOL, INST = 1., NOM_CHAM = 'DEPL',  CRITERE = 'RELATIF',   PRECISION = 1.E-3,
         GROUP_NO = 'F',     NOM_CMP = 'DX',            VALE = -2.1217941E-5, REFERENCE = 'ANALYTIQUE'),
        _F(  RESULTAT = EVOL, INST = 1., NOM_CHAM = 'DEPL',  CRITERE = 'RELATIF',   PRECISION = 1.E-3,
         GROUP_NO = 'F',     NOM_CMP = 'DY',            VALE =  2.1217941E-5, REFERENCE = 'ANALYTIQUE'),
),)
TEST_RESU(RESU=(
    # CONTRAINTES
           _F( RESULTAT = EVOL, INST = 1., NOM_CHAM = 'SIEF_NOEU_ELGA',   CRITERE = 'RELATIF',    PRECISION = 1.E-2,
 GROUP_NO = 'A',   NOM_CMP = 'SIXX',      VALE = 99.9566, REFERENCE = 'ANALYTIQUE'),
           _F( RESULTAT = EVOL, INST = 1., NOM_CHAM = 'SIEF_NOEU_ELGA',   CRITERE = 'RELATIF',    PRECISION = 2.E-2,
 GROUP_NO = 'A',   NOM_CMP = 'SIYY',      VALE = -59.9955, REFERENCE = 'ANALYTIQUE'),
           _F( RESULTAT = EVOL, INST = 1., NOM_CHAM = 'SIEF_NOEU_ELGA',    CRITERE = 'RELATIF',    PRECISION = 3.5E-2,
 GROUP_NO = 'A',   NOM_CMP = 'SIZZ',      VALE = 19.9326, REFERENCE = 'ANALYTIQUE'),
           _F(  RESULTAT = EVOL, INST = 1., NOM_CHAM = 'SIEF_NOEU_ELGA',    CRITERE = 'ABSOLU',     PRECISION = 1.2,
 GROUP_NO = 'A',   NOM_CMP = 'SIXY',      VALE = 0., REFERENCE = 'ANALYTIQUE'),


           _F( RESULTAT = EVOL, INST = 1., NOM_CHAM = 'SIEF_NOEU_ELGA',    CRITERE = 'RELATIF',    PRECISION = 5.E-3,
 GROUP_NO = 'F', NOM_CMP = 'SIXX',      VALE = 20.003, REFERENCE = 'ANALYTIQUE'),
           _F( RESULTAT = EVOL, INST = 1., NOM_CHAM = 'SIEF_NOEU_ELGA',   CRITERE = 'RELATIF',    PRECISION = 5.E-3,
 GROUP_NO = 'F', NOM_CMP = 'SIYY',      VALE = 20.003, REFERENCE = 'ANALYTIQUE'),
           _F(  RESULTAT = EVOL, INST = 1., NOM_CHAM = 'SIEF_NOEU_ELGA',   CRITERE = 'RELATIF',    PRECISION = 5.E-3,
 GROUP_NO = 'F', NOM_CMP = 'SIZZ',      VALE = 20.003, REFERENCE = 'ANALYTIQUE'),
           _F( RESULTAT = EVOL, INST = 1., NOM_CHAM = 'SIEF_NOEU_ELGA',   CRITERE = 'RELATIF',    PRECISION = 5.E-3,
 GROUP_NO = 'F', NOM_CMP = 'SIXY',      VALE = 20.003, REFERENCE = 'ANALYTIQUE'))
          )
TEST_RESU(RESU=(
    # CONTRAINTES EQUIVALENTES
           _F( RESULTAT = EVOL, INST = 1., NOM_CHAM = 'EQUI_NOEU_SIGM',   CRITERE = 'RELATIF',    PRECISION = 2.E-2,
 GROUP_NO = 'A',    MAILLE = 'M1',      NOM_CMP = 'VMIS',      VALE = 138.5226, REFERENCE='ANALYTIQUE'),
           _F( RESULTAT = EVOL, INST = 1., NOM_CHAM = 'EQUI_NOEU_SIGM',   CRITERE = 'RELATIF',    PRECISION = 2.E-2,
 GROUP_NO = 'A',    MAILLE = 'M1',      NOM_CMP = 'TRESCA',      VALE = 159.9521, REFERENCE='ANALYTIQUE'),
           _F( RESULTAT = EVOL, INST = 1., NOM_CHAM = 'EQUI_NOEU_SIGM',   CRITERE = 'RELATIF',    PRECISION = 2.E-2,
 GROUP_NO = 'A',    MAILLE = 'M1',      NOM_CMP = 'PRIN_1',      VALE = -59.9955, REFERENCE='ANALYTIQUE'),
            _F( RESULTAT = EVOL, INST = 1., NOM_CHAM = 'EQUI_NOEU_SIGM',   CRITERE = 'RELATIF',    PRECISION = 3.5E-2,
 GROUP_NO = 'A',    MAILLE = 'M1',      NOM_CMP = 'PRIN_2',      VALE = 19.9326, REFERENCE='ANALYTIQUE'),
           _F( RESULTAT = EVOL, INST = 1., NOM_CHAM = 'EQUI_NOEU_SIGM',   CRITERE = 'RELATIF',    PRECISION = 1.E-2,
 GROUP_NO = 'A',    MAILLE = 'M1',      NOM_CMP = 'PRIN_3',      VALE = 99.9566, REFERENCE='ANALYTIQUE'),
           _F( RESULTAT = EVOL, INST = 1., NOM_CHAM = 'EQUI_NOEU_SIGM',   CRITERE = 'RELATIF',    PRECISION = 2.E-2,
 GROUP_NO = 'A',    MAILLE = 'M1',      NOM_CMP = 'VMIS_SG',      VALE = 138.5226, REFERENCE='ANALYTIQUE'),
),)
#--------------------------------------------------------------------------------
#
# #  TEST SUR L'ESTIMATEUR D'ERREUR EN RESIDU
#
# TEST_RESU(RESU=(
#            _F( RESULTAT = EVOL,
#                INST = 1.,
#                NOM_CHAM = 'ERRE_ELEM_SIGM',
#                CRITERE = 'RELATIF',
#                PRECISION = 0.001,
#                POINT = 1,
#                MAILLE='M1',
#                NOM_CMP = 'NUEST',
#                VALE = 1.4741827586470E-01,
#                REFERENCE = 'NON_REGRESSION',VERSION = '8.1.22'),
#              ),
#             );
#
# TEST_RESU(RESU=(
#            _F( RESULTAT = EVOL,
#                INST = 1.,
#                NOM_CHAM = 'ERRE_ELNO_ELEM',
#                CRITERE = 'RELATIF',
#                PRECISION = 0.001,
#                GROUP_NO= 'A',
#                MAILLE='M1',
#                NOM_CMP = 'ERREST',
#                VALE = 9.4399990209059E-05,
#                REFERENCE = 'NON_REGRESSION',VERSION = '8.1.22'),
#              ),
#             );

FIN( )
#
