
# ======================================================================
# COPYRIGHT (C) 1991 - 2016  EDF R&D                  WWW.CODE-ASTER.ORG
# THIS PROGRAM IS FREE SOFTWARE; YOU CAN REDISTRIBUTE IT AND/OR MODIFY
# IT UNDER THE TERMS OF THE GNU GENERAL PUBLIC LICENSE AS PUBLISHED BY
# THE FREE SOFTWARE FOUNDATION; EITHER VERSION 2 OF THE LICENSE, OR
# (AT YOUR OPTION) ANY LATER VERSION.
#
# THIS PROGRAM IS DISTRIBUTED IN THE HOPE THAT IT WILL BE USEFUL, BUT
# WITHOUT ANY WARRANTY; WITHOUT EVEN THE IMPLIED WARRANTY OF
# MERCHANTABILITY OR FITNESS FOR A PARTICULAR PURPOSE. SEE THE GNU
# GENERAL PUBLIC LICENSE FOR MORE DETAILS.
#
# YOU SHOULD HAVE RECEIVED A COPY OF THE GNU GENERAL PUBLIC LICENSE
# ALONG WITH THIS PROGRAM; IF NOT, WRITE TO EDF R&D CODE_ASTER,
#    1 AVENUE DU GENERAL DE GAULLE, 92141 CLAMART CEDEX, FRANCE.
# ======================================================================
# ======================================================================
# ----------------------------------------------------------------
# MODELISATION C_PLAN : COUPLAGE FLUAGE PROPRE UMLV ET MAZARS
# ----------------------------------------------------------------

DEBUT(CODE=_F(NIV_PUB_WEB='INTERNET',VISU_EFICAS='NON'),DEBUG=_F(SDVERI='OUI'))

heure = 3600.
jour = 24. * heure
annee = 365.25 * jour
mois = annee/12.

MAIL = LIRE_MAILLAGE();

MAIL = DEFI_GROUP(MAILLAGE=MAIL,
                  reuse = MAIL,
                  CREA_GROUP_NO = (_F(GROUP_MA = 'A1'),
                                   _F(GROUP_MA = 'A3'),
                                   _F(GROUP_MA = 'Q'),
                                   ),
                  );

MODELE = AFFE_MODELE(MAILLAGE = MAIL,
                     AFFE = (_F(GROUP_MA = ('Q','A1'),
                             PHENOMENE = 'MECANIQUE',
                             MODELISATION = 'C_PLAN',),
                             ),
                     );

# DEFINITION DU MATERIAU
FONC1 = DEFI_FONCTION(NOM_PARA = 'SECH',
                      PROL_DROITE = 'LINEAIRE',
                      PROL_GAUCHE = 'LINEAIRE',
                      VALE = (0.0, 1.0, 1.0e+10, 1.0),
                      );

E = DEFI_FONCTION(NOM_PARA = 'TEMP',
                      PROL_DROITE = 'LINEAIRE',
                      PROL_GAUCHE = 'LINEAIRE',
                      VALE = (0.0, 31000, 1.0e+10, 31000),
                      );

NU = DEFI_FONCTION(NOM_PARA = 'TEMP',
                      PROL_DROITE = 'LINEAIRE',
                      PROL_GAUCHE = 'LINEAIRE',
                      VALE = (0.0, 0.2, 1.0e+10, 0.2),
                      );

ALPHA = DEFI_CONSTANTE(VALE=0.);

BETON = DEFI_MATERIAU(ELAS_FO = _F(E = E,
                                   NU = NU,
                                   FONC_DESORP = FONC1,
                                   ALPHA = ALPHA ,
                                   TEMP_DEF_ALPHA=20.,
                                   ),
                      MAZARS = _F (EPSD0 = 5.6E-5,
                                   AT = 0.831,
                                   BT = 21330.,
                                   AC = 1.15,
                                   BC = 1390.,
                                   K=0.7,
                                   CHI = 0.6,
                                   ),
                      BETON_UMLV_FP = _F(
                                   K_RS  = 6.0E+4,
                                   ETA_RS = 1.E+10,
                                   K_IS = 3.0E+4,
                                   ETA_IS = 2.4E+10,
                                   K_RD = 3.4E+4,
                                   ETA_RD = 4.08E+11,
                                   ETA_ID = 5.44E+12,
                                   ),
                       );

TEMP = CREA_CHAMP(OPERATION = 'AFFE',
                  TYPE_CHAM = 'NOEU_TEMP_R',
                  MAILLAGE = MAIL,
                  AFFE = _F(TOUT = 'OUI',
                            NOM_CMP = 'TEMP',
                            VALE = 20.,),
                  );

SECH = CREA_CHAMP(OPERATION = 'AFFE',
                  TYPE_CHAM = 'NOEU_TEMP_R',
                  MAILLAGE = MAIL,
                  AFFE = _F(TOUT = 'OUI',
                            NOM_CMP = 'TEMP',
                            VALE = 1.,),
                  );

CAR_MAT = AFFE_MATERIAU(
                        MAILLAGE = MAIL,
                        AFFE = _F(MATER = BETON,
                                  TOUT = 'OUI',
                                  ),
                   AFFE_VARC = (_F(TOUT = 'OUI',
                                   CHAM_GD = SECH,
                                   NOM_VARC = 'SECH',
                                   VALE_REF = 1.),
                                _F(TOUT = 'OUI',
                                   CHAM_GD = TEMP,
                                   NOM_VARC = 'TEMP',
                                   VALE_REF = 20.),
                                 ),
                           );

# CONDITIONS AUX LIMITS

formax = -1.736
rap_pic = 0.80
fortot = rap_pic * formax

FORCE = DEFI_FONCTION(NOM_PARA = 'INST',
                         PROL_DROITE = 'LINEAIRE',
                         PROL_GAUCHE = 'LINEAIRE',
                         VALE = (0.0, 0.0, 300., fortot, annee, fortot),
                         )


CHAR1 = AFFE_CHAR_MECA_F(MODELE = MODELE,
                         FORCE_CONTOUR = _F(GROUP_MA = 'A1',
                                            FX = FORCE,),
                         );

CLIM1 = AFFE_CHAR_MECA(MODELE = MODELE,
                     DDL_IMPO = _F( GROUP_NO = ('P4','P1',),
                                    DY       = 0.,
                                   ),
                     ) ;

CLIM2 = AFFE_CHAR_MECA(MODELE = MODELE,
                     DDL_IMPO = _F( GROUP_NO = 'A3',
                                    DX       = 0.,
                                   ),
                     ) ;


L_INS = DEFI_LIST_REEL( DEBUT = -1.0,
                        INTERVALLE = (
                                      _F(JUSQU_A = 0., NOMBRE = 1,),
                                      _F(JUSQU_A = 300, NOMBRE = 4,),
                                      _F(JUSQU_A = 864000., NOMBRE = 20,),
                                      _F(JUSQU_A = 2300000., NOMBRE = 20,),
                                      _F(JUSQU_A = 5250000., NOMBRE = 40,),
                                      ),
                          );

DEFLIST =DEFI_LIST_INST(DEFI_LIST=_F(LIST_INST =L_INS ),
                        ECHEC=_F(ACTION        = 'DECOUPE',
                                 SUBD_METHODE  = 'MANUEL',
                                 SUBD_NIVEAU   = 4,
                                 ),)

# SOLUTION : ANALYSE QUASI STATIQUE

RESU = STAT_NON_LINE(CHAM_MATER = CAR_MAT,
                     MODELE = MODELE,
                     EXCIT = (_F(CHARGE = CHAR1),
                              _F(CHARGE = CLIM1),
                              _F(CHARGE = CLIM2),
                              ),
                     COMPORTEMENT = _F(RELATION = 'KIT_DDI',
                                    RELATION_KIT = ('BETON_UMLV_FP', 'MAZARS'),
                                    DEFORMATION = 'PETIT',
                                    GROUP_MA = 'Q',),
                     INCREMENT = _F(LIST_INST = DEFLIST,
                                    INST_FIN = 5250000.,
                                    ),
                     ARCHIVAGE=_F(LIST_INST=L_INS),
                     NEWTON = _F(PREDICTION = 'TANGENTE',
                                 MATRICE = 'TANGENTE',
                                 REAC_ITER = 1,
                                 ),
                     CONVERGENCE = _F(
                                 RESI_GLOB_RELA = 1.E-5,
                                 ITER_GLOB_MAXI = 100,
                                
                                     ),
                         );

TEST_RESU(RESU=(_F(NUME_ORDRE=85,
                   POINT=1,
                   RESULTAT=RESU,
                   NOM_CHAM='SIEF_ELGA',
                   NOM_CMP='SIXX',
                   VALE_CALC=1.3887862503183,
                   MAILLE='M1',),
                _F(NUME_ORDRE=85,
                   RESULTAT=RESU,
                   NOM_CHAM='DEPL',
                   NOEUD='N1',
                   NOM_CMP='DX',
                   VALE_CALC=-6.5656852941614E-3,
                   ),
                _F(NUME_ORDRE=85,
                   POINT=1,
                   RESULTAT=RESU,
                   NOM_CHAM='VARI_ELGA',
                   NOM_CMP='V22',
                   VALE_CALC=0.042816591844646,
                   MAILLE='M1',),
                _F(NUME_ORDRE=85,
                   POINT=1,
                   RESULTAT=RESU,
                   NOM_CHAM='VARI_ELGA',
                   NOM_CMP='V3',
                   VALE_CALC=9.4823948514439E-06,
                   MAILLE='M1',),
                ),
          )

FIN();
