# MODIF  DATE 07/09/2009   AUTEUR DELMAS J.DELMAS 
# TITRE CYLINDRE EN INCOMPRESSIBLE (TRIA6 QUAD8) AXISYM GRANDES DEFORMATIONS
# ssnv112d.para = tps_job 60 mem_job 64Mo ncpus 1 liste_test R
#            CONFIGURATION MANAGEMENT OF EDF VERSION
# ======================================================================
# COPYRIGHT (C) 1991 - 2003  EDF R&D                  WWW.CODE-ASTER.ORG
# THIS PROGRAM IS FREE SOFTWARE; YOU CAN REDISTRIBUTE IT AND/OR MODIFY
# IT UNDER THE TERMS OF THE GNU GENERAL PUBLIC LICENSE AS PUBLISHED BY
# THE FREE SOFTWARE FOUNDATION; EITHER VERSION 2 OF THE LICENSE, OR
# (AT YOUR OPTION) ANY LATER VERSION.
#
# THIS PROGRAM IS DISTRIBUTED IN THE HOPE THAT IT WILL BE USEFUL, BUT
# WITHOUT ANY WARRANTY; WITHOUT EVEN THE IMPLIED WARRANTY OF
# MERCHANTABILITY OR FITNESS FOR A PARTICULAR PURPOSE. SEE THE GNU
# GENERAL PUBLIC LICENSE FOR MORE DETAILS.
#
# YOU SHOULD HAVE RECEIVED A COPY OF THE GNU GENERAL PUBLIC LICENSE
# ALONG WITH THIS PROGRAM; IF NOT, WRITE TO EDF R&D CODE_ASTER,
#    1 AVENUE DU GENERAL DE GAULLE, 92141 CLAMART CEDEX, FRANCE.
# ======================================================================
# CYLINDRE CREUX EN INCOMPRESSIBLE (NU=0.4999)
# SOUS PRESSION INTERNE (60 MPA) - GRANDES DEFORMATIONS
#
# MODELISATION : ELEMENTS MECANIQUE AXIS_INCO (TRIA6 QUAD8)
# MAILLAGE     : ALIBABA > ASTER
# ----------------------------------------------------------------------
# GROUPES DE NOEUDS ET MAILLES: A B C D E F  NOEUMIA NOEUMIB  FACESUP   FACEINF
#             BORDAB=GRNM11     FACEEF=GRMA12     FACEAE=GRMA13
# ----------------------------------------------------------------------

DEBUT(CODE=_F(NOM='SSNV112D',
              NIV_PUB_WEB='INTERNET',),
      DEBUG=_F(SDVERI='OUI',),);

M=LIRE_MAILLAGE();

PRES = FORMULE(VALE='60.',
               NOM_PARA=('X','Y',),);

MO=AFFE_MODELE(MAILLAGE=M,
               VERIF='MAILLE',
               AFFE=_F(TOUT='OUI',
                       PHENOMENE='MECANIQUE',
                       MODELISATION='AXIS_INCO_GD',),);

MA=DEFI_MATERIAU(ELAS=_F(E=200000.0,
                         NU=0.4999,
                         ALPHA=0.,),
                 ECRO_LINE=_F(D_SIGM_EPSI=0.,
                              SY=1.E10,),);

CM=AFFE_MATERIAU(MAILLAGE=M,
                 AFFE=_F(TOUT='OUI',
                         MATER=MA,),);

CLIM=AFFE_CHAR_MECA(MODELE=MO,
                    DDL_IMPO=(_F(GROUP_NO='FACINF',
                                 DY=0.0,),
                              _F(GROUP_NO='FACSUP',
                                 DY=0.0,),),);

CH=AFFE_CHAR_MECA(MODELE=MO,
                  FACE_IMPO=_F(GROUP_MA='GRMA13',
                               DX=6e-05,),);

#                       PRES_REP=_F(  GROUP_MA = 'GRMA13',  PRES = PRES) )

L_INST1=DEFI_LIST_REEL(DEBUT=0.0,
                       INTERVALLE=_F(JUSQU_A=1.0,
                                     NOMBRE=1,),);

RAMPE=DEFI_FONCTION(NOM_PARA='INST',VALE=(0.0,0.0,
                          1.0,1.0,
                          ),PROL_DROITE='CONSTANT',);

EVOL=STAT_NON_LINE(MODELE=MO,
                   CHAM_MATER=CM,
                   EXCIT=(_F(CHARGE=CLIM,),
                          _F(CHARGE=CH,
                             FONC_MULT=RAMPE,),),
                   COMP_INCR=_F(RELATION='VMIS_ISOT_LINE',
                                DEFORMATION='SIMO_MIEHE',),
                   INCREMENT=_F(LIST_INST=L_INST1,),
                   NEWTON=_F(REAC_ITER=1,),
                   CONVERGENCE=_F(SIGM_REFE=60.0,
                                  EPSI_REFE=3.E-4,
                                  RESI_REFE_RELA=1.E-3,),
                   SOLVEUR=_F(METHODE='MUMPS',
                              PCENT_PIVOT=600,),);

EVOL=CALC_ELEM(reuse =EVOL,
               RESULTAT=EVOL,
               OPTION=('SIEF_ELNO_ELGA','EQUI_ELNO_SIGM','ERRE_ELEM_SIGM','ERRE_ELNO_ELEM',),);

EVOL=CALC_NO(reuse =EVOL,
             RESULTAT=EVOL,
             OPTION=('SIEF_NOEU_ELGA','EQUI_NOEU_SIGM',),);

#---------------------------------------------------------------
# POSTTRAITEMENT ETUDE 1
#---------------------------------------------------------------

TEST_RESU(RESU=(_F(RESULTAT=EVOL,
                   INST=1.0,
                   NOM_CHAM='DEPL',
                   NOM_CMP='DX',
                   GROUP_NO='A',
                   VALE=6e-05,
                   CRITERE='RELATIF',
                   PRECISION=0.001,
                   REFERENCE='ANALYTIQUE',),
                _F(RESULTAT=EVOL,
                   INST=1.0,
                   NOM_CHAM='DEPL',
                   NOM_CMP='DY',
                   GROUP_NO='A',
                   VALE=0.0,
                   CRITERE='ABSOLU',
                   PRECISION=1e-05,
                   REFERENCE='ANALYTIQUE',),
                _F(RESULTAT=EVOL,
                   INST=1.0,
                   NOM_CHAM='DEPL',
                   NOM_CMP='DX',
                   GROUP_NO='F',
                   VALE=3e-05,
                   CRITERE='RELATIF',
                   PRECISION=0.001,
                   REFERENCE='ANALYTIQUE',),
                _F(RESULTAT=EVOL,
                   INST=1.0,
                   NOM_CHAM='DEPL',
                   NOM_CMP='DY',
                   GROUP_NO='F',
                   VALE=0.0,
                   CRITERE='ABSOLU',
                   PRECISION=1e-05,
                   REFERENCE='ANALYTIQUE',),),);

#-----------------------------------------------------------------

TEST_RESU(RESU=(_F(RESULTAT=EVOL,
                   INST=1.0,
                   NOM_CHAM='SIEF_NOEU_ELGA',
                   NOM_CMP='SIXX',
                   GROUP_NO='A',
                   VALE=-59.9955,
                   CRITERE='RELATIF',
                   PRECISION=0.005,
                   REFERENCE='ANALYTIQUE',),
                _F(RESULTAT=EVOL,
                   INST=1.0,
                   NOM_CHAM='SIEF_NOEU_ELGA',
                   NOM_CMP='SIYY',
                   GROUP_NO='A',
                   VALE=19.9326,
                   CRITERE='RELATIF',
                   PRECISION=0.005,
                   REFERENCE='ANALYTIQUE',),
                _F(RESULTAT=EVOL,
                   INST=1.0,
                   NOM_CHAM='SIEF_NOEU_ELGA',
                   NOM_CMP='SIZZ',
                   GROUP_NO='A',
                   VALE=99.9566,
                   CRITERE='RELATIF',
                   PRECISION=0.005,
                   REFERENCE='ANALYTIQUE',),
                _F(RESULTAT=EVOL,
                   INST=1.0,
                   NOM_CHAM='SIEF_NOEU_ELGA',
                   NOM_CMP='SIXY',
                   GROUP_NO='A',
                   VALE=0.0,
                   CRITERE='ABSOLU',
                   PRECISION=1e-05,
                   REFERENCE='ANALYTIQUE',),
                _F(RESULTAT=EVOL,
                   INST=1.0,
                   NOM_CHAM='SIEF_NOEU_ELGA',
                   NOM_CMP='SIXX',
                   GROUP_NO='F',
                   VALE=0.0,
                   CRITERE='ABSOLU',
                   PRECISION=0.03,
                   REFERENCE='ANALYTIQUE',),
                _F(RESULTAT=EVOL,
                   INST=1.0,
                   NOM_CHAM='SIEF_NOEU_ELGA',
                   NOM_CMP='SIYY',
                   GROUP_NO='F',
                   VALE=20.0,
                   CRITERE='RELATIF',
                   PRECISION=0.005,
                   REFERENCE='ANALYTIQUE',),
                _F(RESULTAT=EVOL,
                   INST=1.0,
                   NOM_CHAM='SIEF_NOEU_ELGA',
                   NOM_CMP='SIZZ',
                   GROUP_NO='F',
                   VALE=40.006,
                   CRITERE='RELATIF',
                   PRECISION=0.005,
                   REFERENCE='ANALYTIQUE',),
                _F(RESULTAT=EVOL,
                   INST=1.0,
                   NOM_CHAM='SIEF_NOEU_ELGA',
                   NOM_CMP='SIXY',
                   GROUP_NO='F',
                   VALE=0.0,
                   CRITERE='ABSOLU',
                   PRECISION=0.005,
                   REFERENCE='ANALYTIQUE',),),);

TEST_RESU(RESU=(_F(RESULTAT=EVOL,
                   INST=1.0,
                   NOM_CHAM='EQUI_NOEU_SIGM',
                   NOM_CMP='VMIS',
                   MAILLE='M1',
                   GROUP_NO='A',
                   VALE=138.5226,
                   CRITERE='RELATIF',
                   PRECISION=0.005,
                   REFERENCE='ANALYTIQUE',),
                _F(RESULTAT=EVOL,
                   INST=1.0,
                   NOM_CHAM='EQUI_NOEU_SIGM',
                   NOM_CMP='TRESCA',
                   MAILLE='M1',
                   GROUP_NO='A',
                   VALE=159.9521,
                   CRITERE='RELATIF',
                   PRECISION=0.005,
                   REFERENCE='ANALYTIQUE',),
                _F(RESULTAT=EVOL,
                   INST=1.0,
                   NOM_CHAM='EQUI_NOEU_SIGM',
                   NOM_CMP='PRIN_1',
                   MAILLE='M1',
                   GROUP_NO='A',
                   VALE=-59.9955,
                   CRITERE='RELATIF',
                   PRECISION=0.005,
                   REFERENCE='ANALYTIQUE',),
                _F(RESULTAT=EVOL,
                   INST=1.0,
                   NOM_CHAM='EQUI_NOEU_SIGM',
                   NOM_CMP='PRIN_2',
                   MAILLE='M1',
                   GROUP_NO='A',
                   VALE=19.9326,
                   CRITERE='RELATIF',
                   PRECISION=0.005,
                   REFERENCE='ANALYTIQUE',),
                _F(RESULTAT=EVOL,
                   INST=1.0,
                   NOM_CHAM='EQUI_NOEU_SIGM',
                   NOM_CMP='PRIN_3',
                   MAILLE='M1',
                   GROUP_NO='A',
                   VALE=99.9566,
                   CRITERE='RELATIF',
                   PRECISION=0.005,
                   REFERENCE='ANALYTIQUE',),
                _F(RESULTAT=EVOL,
                   INST=1.0,
                   NOM_CHAM='EQUI_NOEU_SIGM',
                   NOM_CMP='VMIS_SG',
                   MAILLE='M1',
                   GROUP_NO='A',
                   VALE=138.5226,
                   CRITERE='RELATIF',
                   PRECISION=0.005,
                   REFERENCE='ANALYTIQUE',),),);

#
#  TEST SUR L'ESTIMATEUR D'ERREUR EN RESIDU

TEST_RESU(RESU=_F(RESULTAT=EVOL,
                  INST=1.0,
                  NOM_CHAM='ERRE_ELEM_SIGM',
                  NOM_CMP='NUEST',
                  MAILLE='M2',
                  POINT=1,
                  VALE=6.3337380280555E-05,
                  CRITERE='RELATIF',
                  PRECISION=5e-07,
                  REFERENCE='NON_REGRESSION',
                  VERSION='10.0.16',),);

TEST_RESU(RESU=_F(RESULTAT=EVOL,
                  INST=1.0,
                  NOM_CHAM='ERRE_ELNO_ELEM',
                  NOM_CMP='ERREST',
                  MAILLE='M2',
                  GROUP_NO='A',
                  VALE=1.1473115529256E-07,
                  CRITERE='RELATIF',
                  PRECISION=5e-07,
                  REFERENCE='NON_REGRESSION',
                  VERSION='10.0.16',),);

FIN();
