# MODIF  DATE 10/10/2012   AUTEUR COURTOIS M.COURTOIS 
# TITRE VALIDATION DE LA MODELISATION GVNO + LOI ENDO_CARRE EN 3D
#            CONFIGURATION MANAGEMENT OF EDF VERSION
# ======================================================================
# COPYRIGHT (C) 1991 - 2012  EDF R&D                  WWW.CODE-ASTER.ORG
# THIS PROGRAM IS FREE SOFTWARE; YOU CAN REDISTRIBUTE IT AND/OR MODIFY  
# IT UNDER THE TERMS OF THE GNU GENERAL PUBLIC LICENSE AS PUBLISHED BY  
# THE FREE SOFTWARE FOUNDATION; EITHER VERSION 2 OF THE LICENSE, OR     
# (AT YOUR OPTION) ANY LATER VERSION.                                                    
#                                                                       
# THIS PROGRAM IS DISTRIBUTED IN THE HOPE THAT IT WILL BE USEFUL, BUT   
# WITHOUT ANY WARRANTY; WITHOUT EVEN THE IMPLIED WARRANTY OF            
# MERCHANTABILITY OR FITNESS FOR A PARTICULAR PURPOSE. SEE THE GNU      
# GENERAL PUBLIC LICENSE FOR MORE DETAILS.                              
#                                                                       
# YOU SHOULD HAVE RECEIVED A COPY OF THE GNU GENERAL PUBLIC LICENSE     
# ALONG WITH THIS PROGRAM; IF NOT, WRITE TO EDF R&D CODE_ASTER,         
#    1 AVENUE DU GENERAL DE GAULLE, 92141 CLAMART CEDEX, FRANCE.        
# ======================================================================
# ssnv220a.para = tps_job 60 mem_job 512Mo ncpus 1 liste_test R

DEBUT(CODE=_F(NOM='SSNV220A', NIV_PUB_WEB='INTERNET', VISU_EFICAS='NON'), DEBUG=_F(SDVERI='OUI'))

t1 = 0.3042903
t2 = 0.4082483
t3 = 0.5270463
t4 = 0.7453560

MAILLAGE  =  LIRE_MAILLAGE(FORMAT='MED')


MA         = CREA_MAILLAGE( MAILLAGE = MAILLAGE,
                            LINE_QUAD = _F(TOUT = 'OUI'),
                          );

TEMPS      = DEFI_LIST_REEL( DEBUT=0.,
                             INTERVALLE=(_F(JUSQU_A=t1,
                                            NOMBRE=1,),
                                         _F(JUSQU_A=t2,
                                            NOMBRE=1,),  
                                         _F(JUSQU_A=t3,
                                            NOMBRE=1,),      
                                         _F(JUSQU_A=t4,
                                            NOMBRE=1,),                                                                                                                    
                                         )
                            )             

MATER      = DEFI_MATERIAU( ELAS = _F(E  = 1.0,
                                      NU = 0.,
                                     ),
                            ECRO_LINE  = _F(SY = 0.01, D_SIGM_EPSI = 2.0),
                            NON_LOCAL  = _F(C_GRAD_VARI = 1.0)
                          )


CHMAT      = AFFE_MATERIAU(MAILLAGE=MA,
                           AFFE=_F(TOUT='OUI',
                                   MATER=MATER),);

COEF       = DEFI_FONCTION( NOM_PARA    = 'INST',
                            PROL_DROITE = 'LINEAIRE',
                            VALE=( 0.0,  0.0,
                                   1.0,  2.0E-2,)
                          )


MO         = AFFE_MODELE(MAILLAGE=MA,
                         AFFE=_F(TOUT='OUI',
                                 PHENOMENE='MECANIQUE',
                                 MODELISATION='3D_GVNO',
                                ),
                        );

#***********************************************************************
#    CHARGEMENT MECANIQUE POUR OBTENIR UNE SOLUTION HOMOGENE
#***********************************************************************

CH_U1  = AFFE_CHAR_CINE( MODELE    = MO,
                         MECA_IMPO = _F( GROUP_MA  = 'FAC',
                                         DX        =  1.,     
                                         )
                        )
                        
CH_U2  = AFFE_CHAR_CINE( MODELE    = MO,
                         MECA_IMPO = _F( GROUP_MA  = 'DER',
                                         DX        =  0.,   
                                         )   
                        )               

CH_U3  = AFFE_CHAR_CINE( MODELE    = MO,
                         MECA_IMPO = _F( GROUP_MA  = 'DRO',
                                         DY        =  1. )                                        
                        ) 
                         
                         
CH_U4  = AFFE_CHAR_CINE( MODELE    = MO,
                         MECA_IMPO = _F( GROUP_MA  = 'GAU',
                                         DY        =  0. )                                        
                        )     


CH_U5  = AFFE_CHAR_CINE( MODELE    = MO,
                         MECA_IMPO = _F( GROUP_MA  = 'HAU',
                                         DZ        =  1. )                                        
                        )                                                                                                             
                                             
CH_U6  = AFFE_CHAR_CINE( MODELE    = MO,
                         MECA_IMPO = _F( GROUP_MA  = 'BAS',
                                         DZ        =  0. )                                        
                        )                                              
                                             
                                                                                           

EVOL   = STAT_NON_LINE( MODELE     = MO,
                        CHAM_MATER = CHMAT,
                        EXCIT      = ( _F( CHARGE       = CH_U1,
                                           FONC_MULT    = COEF),
                                       _F( CHARGE       = CH_U2),                                
                                       _F( CHARGE       = CH_U3,
                                           FONC_MULT    = COEF),
                                       _F( CHARGE       = CH_U4),     
                                       _F( CHARGE       = CH_U5,
                                           FONC_MULT    = COEF), 
                                       _F( CHARGE       = CH_U6),),                                                                                            
                        COMP_INCR  =   _F( TOUT           = 'OUI',
                                           RELATION       = 'ENDO_CARRE',
                                          ),                         
                        NEWTON     =   _F( MATRICE        = 'TANGENTE',
                                           REAC_ITER      = 1,),
                        CONVERGENCE=   _F( RESI_GLOB_RELA = 1.E-6,
                                           ITER_GLOB_MAXI = 50,),
                        INCREMENT  =   _F( LIST_INST      = TEMPS,),
                        AFFICHAGE  =   _F( INFO_RESIDU = 'OUI',)
                       )                
   
                                          
#***********************************************************************
#    TEST COMPARAISON AVEC ENDOMMAGEMENT ANALYTIQUE
#*********************************************************************** 

                                         
TEST_RESU(RESU=_F(NUME_ORDRE=1,
                  RESULTAT=EVOL,
                  NOM_CHAM='DEPL',
                  NOEUD='N7',
                  NOM_CMP='DAMG',
                  VALE_CALC=0.10000000000000001,
                  
                  ),
          )

TEST_RESU(RESU=_F(NUME_ORDRE=2,
                  RESULTAT=EVOL,
                  NOM_CHAM='DEPL',
                  NOEUD='N7',
                  NOM_CMP='DAMG',
                  VALE_CALC=0.5,
                  
                  ),
          )

TEST_RESU(RESU=_F(NUME_ORDRE=3,
                  RESULTAT=EVOL,
                  NOM_CHAM='DEPL',
                  NOEUD='N7',
                  NOM_CMP='DAMG',
                  VALE_CALC=0.69999999999999996,
                  
                  ),
          )

TEST_RESU(RESU=_F(NUME_ORDRE=4,
                  RESULTAT=EVOL,
                  NOM_CHAM='DEPL',
                  NOEUD='N7',
                  NOM_CMP='DAMG',
                  VALE_CALC=0.84999999999999998,
                  
                  ),
          )

FIN();
