# MODIF  DATE 05/03/2012   AUTEUR PELLET J.PELLET 
# TITRE    : PATIN GLISSANT SUR UN PLAN RIGIDE
# ssnv503j.para = tps_job 60 mem_job 32Mo ncpus 1 liste_test S
#            CONFIGURATION MANAGEMENT OF EDF VERSION
# ======================================================================
# COPYRIGHT (C) 1991 - 2012  EDF R&D                  WWW.CODE-ASTER.ORG
# THIS PROGRAM IS FREE SOFTWARE; YOU CAN REDISTRIBUTE IT AND/OR MODIFY
# IT UNDER THE TERMS OF THE GNU GENERAL PUBLIC LICENSE AS PUBLISHED BY
# THE FREE SOFTWARE FOUNDATION; EITHER VERSION 2 OF THE LICENSE, OR
# (AT YOUR OPTION) ANY LATER VERSION.
#
# THIS PROGRAM IS DISTRIBUTED IN THE HOPE THAT IT WILL BE USEFUL, BUT
# WITHOUT ANY WARRANTY; WITHOUT EVEN THE IMPLIED WARRANTY OF
# MERCHANTABILITY OR FITNESS FOR A PARTICULAR PURPOSE. SEE THE GNU
# GENERAL PUBLIC LICENSE FOR MORE DETAILS.
#
# YOU SHOULD HAVE RECEIVED A COPY OF THE GNU GENERAL PUBLIC LICENSE
# ALONG WITH THIS PROGRAM; IF NOT, WRITE TO EDF R&D CODE_ASTER,
#    1 AVENUE DU GENERAL DE GAULLE, 92141 CLAMART CEDEX, FRANCE.
# ======================================================================


DEBUT(CODE=_F(NOM='SSNV503J', NIV_PUB_WEB='INTERNET'), DEBUG=_F(SDVERI='OUI'))

MA_0=LIRE_MAILLAGE(VERI_MAIL=_F(VERIF='OUI',),FORMAT='MED',);

MA_0=DEFI_GROUP(reuse =MA_0,
                 MAILLAGE=MA_0,
                 CREA_GROUP_NO = (
                        _F(
                           NOM = 'BJOI',
                           GROUP_MA = 'LJOI',
                           OPTION = 'NOEUD_ORDO',
                           GROUP_NO_ORIG = 'H2',
                           GROUP_NO_EXTR = 'H3',),
                        _F(
                           NOM = 'HJOI',
                           GROUP_MA = 'LESC',
                           OPTION = 'NOEUD_ORDO',
                           GROUP_NO_ORIG = 'A',
                           GROUP_NO_EXTR = 'B',),
                       # _F(TOUT_GROUP_MA='OUI',),
                       )
                 );


MAILL = CREA_MAILLAGE(
  MAILLAGE = MA_0,
  CREA_FISS = _F(
    NOM = 'FISS',
    GROUP_NO_2 = 'HJOI',
    GROUP_NO_1 = 'BJOI',
    PREF_MAILLE = 'MJ',
    )
  )



MAILL=DEFI_GROUP(reuse =MAILL,
                 MAILLAGE=MAILL,
                 CREA_GROUP_NO=_F(TOUT_GROUP_MA='OUI',),);

MODE=AFFE_MODELE(MAILLAGE=MAILL,
                 VERIF='MAILLE',
                 AFFE=(_F(TOUT='OUI',
                          PHENOMENE='MECANIQUE',
                          MODELISATION='D_PLAN',),
                       _F(GROUP_MA='RES_LAT',
                          PHENOMENE='MECANIQUE',
                          MODELISATION='2D_DIS_T',),
                       _F(GROUP_MA='RES_HAUT',
                          PHENOMENE='MECANIQUE',
                          MODELISATION='2D_DIS_T',),
                       _F(
                         GROUP_MA     = 'FISS',
                         PHENOMENE    = 'MECANIQUE',
                         MODELISATION = 'PLAN_JOINT'
                         ),
                      ),

 );

#---------------------------------------------------------------------
#                         CARACTERISTIQUES ELEMENTAIRES
#---------------------------------------------------------------------

CARA=AFFE_CARA_ELEM(MODELE=MODE,
                    DISCRET_2D=(_F(GROUP_MA='RES_LAT',
                                   REPERE='LOCAL',
                                   CARA='K_T_D_L',
                                   VALE=(2.0,0.0),),
                                _F(GROUP_MA='RES_HAUT',
                                   REPERE='LOCAL',
                                   CARA='K_T_D_L',
                                   VALE=(0.005,0.0),),
                              ),);

#---------------------------------------------------------------------
#                         CARACTERISTIQUES MATERIAUX
#---------------------------------------------------------------------

MPATIN=DEFI_MATERIAU(ELAS=_F(E=2.10000E5,
                             NU=0.0,),);

MBATI=DEFI_MATERIAU(ELAS=_F(E=1.E5,
                            NU=0.0,),);

# MATERIAU JOINT MECANIQUE AVEC FROTTEMENT
k_n=1.E5
MAT_JF=DEFI_MATERIAU(
                  JOINT_MECA_FROT=_F(K_N=k_n,
                                     MU=0.3,
                                ),);

CM=AFFE_MATERIAU(MAILLAGE=MAILL,
                 MODELE=MODE,
                 AFFE=(_F(GROUP_MA='PATIN',
                          MATER=MPATIN,),
                       _F(GROUP_MA='BATI',
                          MATER=MBATI,),
                        _F(GROUP_MA='FISS',
                          MATER=MAT_JF,),
                       ),);
#---------------------------------------------------------------------
#                         CHARGEMENTS
#---------------------------------------------------------------------

# CONDITIONS AUX LIMITES
COND_LIM=AFFE_CHAR_MECA(MODELE=MODE,
                        DDL_IMPO=(_F(GROUP_NO='BATI',
                                     DX=0.0,DY=0.0,),
                                  _F(GROUP_NO=('R1','R2','X','Y'),
                                     DX=0.0,DY=0.0,),),);

# CHARGEMENT 1 : APPLICATION DE LA PRESSION NORMALE
PNOR=AFFE_CHAR_MECA(MODELE=MODE,
                    PRES_REP=_F(GROUP_MA='FACESUP',
                                PRES=300.0,),);

# CHARGEMENT 2 : APPLICATION DE LA PRESSION NORMALE ET DE LA PRESSION
#                  TANGENTIELLE (PT=0.3*PN*0.99)
PTAN_99=AFFE_CHAR_MECA(MODELE=MODE,
                       PRES_REP=_F(GROUP_MA='FACELAT',
                                   PRES=178.19999999999999,),);

# CHARGEMENT 3 : APPLICATION DE LA PRESSION NORMALE ET DE LA PRESSION
#                  TANGENTIELLE (PT=0.3*PN*1.01)
PTAN_101=AFFE_CHAR_MECA(MODELE=MODE,
                        PRES_REP=_F(GROUP_MA='FACELAT',
                                    PRES=181.80000000000001,),);


#---------------------------------------------------------------------
#                         RESOLUTION
#---------------------------------------------------------------------


RAMPE=DEFI_FONCTION(NOM_PARA='INST',
                    VALE=(0.0,0.0,
                          1.0,1.0),
                    PROL_DROITE='LINEAIRE',
                    PROL_GAUCHE='LINEAIRE',);

L_INST=DEFI_LIST_REEL(DEBUT=0.0,
                      INTERVALLE=_F(JUSQU_A=1.0,
                                    NOMBRE=2,),);


# CHARGEMENT 1
U_NOR=STAT_NON_LINE(MODELE=MODE,
                    CHAM_MATER=CM,
                    CARA_ELEM=CARA,
                    EXCIT=(_F(CHARGE=PNOR,
                              FONC_MULT=RAMPE,),
                           _F(CHARGE=COND_LIM,),),
                    COMP_INCR=(_F(RELATION='ELAS',
                                 GROUP_MA=('BATI','PATIN',),),
                               _F(RELATION = 'JOINT_MECA_FROT',
                                   GROUP_MA = 'FISS', ),
                               ),
                    INCREMENT=_F(LIST_INST=L_INST,),
                    NEWTON=_F(MATRICE='TANGENTE',
                              REAC_ITER=1,),
                    SOLVEUR=_F(METHODE='MUMPS',
                              PCENT_PIVOT=150,
                              ),
                    CONVERGENCE=_F(ITER_GLOB_MAXI=30,),
                    );

U_NOR=CALC_CHAMP(reuse =U_NOR,
              RESULTAT=U_NOR,
              FORCE='REAC_NODA',

              );

# CHARGEMENT 2
U_99=STAT_NON_LINE(MODELE=MODE,
                   CHAM_MATER=CM,
                   CARA_ELEM=CARA,
                   EXCIT=(_F(CHARGE=PNOR,
                             FONC_MULT=RAMPE,),
                          _F(CHARGE=PTAN_99,
                             FONC_MULT=RAMPE,),
                          _F(CHARGE=COND_LIM,),),
                    COMP_INCR=(_F(RELATION='ELAS',
                                 GROUP_MA=('BATI','PATIN',),),
                               _F(RELATION = 'JOINT_MECA_FROT',
                                   GROUP_MA = 'FISS', ),
                               ),
                    INCREMENT=_F(LIST_INST=L_INST,),
                    NEWTON=_F(MATRICE='TANGENTE',
                              REAC_ITER=1,),
                    SOLVEUR=_F(METHODE='MUMPS',
                              PCENT_PIVOT=150,
                              ),
                    CONVERGENCE=_F(ITER_GLOB_MAXI=30,),
                    );

U_99=CALC_CHAMP(reuse =U_99,
             RESULTAT=U_99,
             FORCE='REAC_NODA',

              );

# CHARGEMENT 3
U_101=STAT_NON_LINE(MODELE=MODE,
                    CHAM_MATER=CM,
                    CARA_ELEM=CARA,
                    EXCIT=(_F(CHARGE=PNOR,
                              FONC_MULT=RAMPE,),
                           _F(CHARGE=PTAN_101,
                              FONC_MULT=RAMPE,),
                           _F(CHARGE=COND_LIM,),),
                    COMP_INCR=(_F(RELATION='ELAS',
                                 GROUP_MA=('BATI','PATIN',),),
                               _F(RELATION = 'JOINT_MECA_FROT',
                                   GROUP_MA = 'FISS', ),
                               ),
                    INCREMENT=_F(LIST_INST=L_INST,),
                    NEWTON=_F(MATRICE='TANGENTE',
                              REAC_ITER=1,),
                    SOLVEUR=_F(METHODE='MUMPS',
                              PCENT_PIVOT=150,
                              ),
                    CONVERGENCE=_F(ITER_GLOB_MAXI=30,),
                    );

U_101=CALC_CHAMP(reuse =U_101,
              RESULTAT=U_101,
              FORCE='REAC_NODA',

              );


#---------------------------------------------------------------------
#                         VERIFICATION DES RESULTATS
#---------------------------------------------------------------------

# CHARGEMENT 1
TEST_RESU(RESU=(_F(RESULTAT=U_NOR,
                   INST=1.,
                   NOM_CHAM='DEPL',
                   NOM_CMP='DX',
                   GROUP_NO='A',
                   VALE=150./k_n,
                   PRECISION=1.E-2,
                   REFERENCE='ANALYTIQUE',
                   VERSION='6.3.13',),
                _F(RESULTAT=U_NOR,
                   INST=1.,
                   NOM_CHAM='DEPL',
                   NOM_CMP='DY',
                   GROUP_NO='A',
                   VALE=-sqrt(3)*150./k_n,
                   PRECISION=1.E-2,
                   REFERENCE='ANALYTIQUE',
                   VERSION='6.3.13',),
                _F(RESULTAT=U_NOR,
                   INST=1.,
                   NOM_CHAM='DEPL',
                   NOM_CMP='DX',
                   GROUP_NO='B',
                   VALE=150./k_n,
                   PRECISION=1.E-2,
                   REFERENCE='ANALYTIQUE',
                   VERSION='6.3.13',),
                _F(RESULTAT=U_NOR,
                   INST=1.,
                   NOM_CHAM='DEPL',
                   NOM_CMP='DY',
                   GROUP_NO='B',
                   VALE=-sqrt(3)*150./k_n,
                   PRECISION=1.E-2,
                   REFERENCE='ANALYTIQUE',
                   VERSION='6.3.13',),),);

TU_NOR=POST_RELEVE_T(ACTION=_F(INTITULE='FORCE',
                               GROUP_NO='LMAI',
                               RESULTAT=U_NOR,
                               NOM_CHAM='REAC_NODA',
                               NOM_CMP=('DX','DY'),
                               REPERE='LOCAL',
                               OPERATION='EXTRACTION',
                               INST=1.,),);

TEST_TABLE(TABLE=TU_NOR,
           TYPE_TEST='SOMM',
           NOM_PARA='DY',
           VALE=-1.2000E4,
           PRECISION=0.050000000000000003,
           REFERENCE='ANALYTIQUE',);

TEST_TABLE(TABLE=TU_NOR,
           TYPE_TEST='SOMM',
           NOM_PARA='DX',
           VALE=0.0,
           CRITERE='ABSOLU',
           PRECISION=0.050000000000000003,
           REFERENCE='ANALYTIQUE',);


# CHARGEMENT 2
TEST_RESU(RESU=(_F(RESULTAT=U_99,
                   INST=1.,
                   NOM_CHAM='DEPL',
                   NOM_CMP='DX',
                   GROUP_NO='A',
                   VALE=0.0234,
                   PRECISION=1.E-2,
                   REFERENCE='NON_REGRESSION',
                   VERSION='6.3.13',),
                _F(RESULTAT=U_99,
                   INST=1.,
                   NOM_CHAM='DEPL',
                   NOM_CMP='DY',
                   GROUP_NO='A',
                   VALE=0.0122,
                   PRECISION=1.E-2,
                   REFERENCE='NON_REGRESSION',
                   VERSION='6.3.13',),
                _F(RESULTAT=U_99,
                   INST=1.,
                   NOM_CHAM='DEPL',
                   NOM_CMP='DX',
                   GROUP_NO='B',
                   VALE=4.032E-3,
                   PRECISION=1.E-2,
                   REFERENCE='NON_REGRESSION',
                   VERSION='6.3.13',),
                _F(RESULTAT=U_99,
                   INST=1.,
                   NOM_CHAM='DEPL',
                   NOM_CMP='DY',
                   GROUP_NO='B',
                   VALE=-4.747E-3,
                   PRECISION=1.E-2,
                   REFERENCE='NON_REGRESSION',
                   VERSION='6.3.13',),),);

TU_99=POST_RELEVE_T(ACTION=_F(INTITULE='FORCE',
                              GROUP_NO='LMAI',
                              RESULTAT=U_99,
                              NOM_CHAM='REAC_NODA',
                              NOM_CMP=('DX','DY'),
                              REPERE='LOCAL',
                              OPERATION='EXTRACTION',
                              INST=1.),);

TEST_TABLE(TABLE=TU_99,
           TYPE_TEST='SOMM',
           NOM_PARA='DY',
           VALE=-1.2000E4,
           PRECISION=1.E-2,
           REFERENCE='ANALYTIQUE',);

TEST_TABLE(TABLE=TU_99,
           TYPE_TEST='SOMM',
           NOM_PARA='DX',
           VALE=3564.0,
           PRECISION=1.E-2,
           REFERENCE='ANALYTIQUE',);


# CHARGEMENT 3
TEST_RESU(RESU=(_F(RESULTAT=U_101,
                   INST=1.,
                   NOM_CHAM='DEPL',
                   NOM_CMP='DX',
                   GROUP_NO='A',
                   VALE=sqrt(3)*1.5,
                   PRECISION=1.E-2,
                   REFERENCE='ANALYTIQUE',
                   VERSION='6.3.13',),
                _F(RESULTAT=U_101,
                   INST=1.,
                   NOM_CHAM='DEPL',
                   NOM_CMP='DY',
                   GROUP_NO='A',
                   VALE=1.5,
                   PRECISION=1.E-2,
                   REFERENCE='ANALYTIQUE',
                   VERSION='6.3.13',),
                _F(RESULTAT=U_101,
                   INST=1.,
                   NOM_CHAM='DEPL',
                   NOM_CMP='DX',
                   GROUP_NO='B',
                   VALE=sqrt(3)*1.5,
                   PRECISION=1.E-2,
                   REFERENCE='ANALYTIQUE',
                   VERSION='6.3.13',),
                _F(RESULTAT=U_101,
                   INST=1.,
                   NOM_CHAM='DEPL',
                   NOM_CMP='DY',
                   GROUP_NO='B',
                   VALE=1.5,
                   PRECISION=1.E-2,
                   REFERENCE='ANALYTIQUE',
                   VERSION='6.3.13',),),);

TU_101=POST_RELEVE_T(ACTION=_F(INTITULE='FORCE',
                               GROUP_NO='LMAI',
                               RESULTAT=U_101,
                               NOM_CHAM='REAC_NODA',
                               NOM_CMP=('DX','DY'),
                               REPERE='LOCAL',
                               OPERATION='EXTRACTION',
                               INST=1.),);

TEST_TABLE(TABLE=TU_101,
           TYPE_TEST='SOMM',
           NOM_PARA='DY',
           VALE=-1.2000E4,
           PRECISION=1.E-2,
           REFERENCE='ANALYTIQUE',);

TEST_TABLE(TABLE=TU_101,
           TYPE_TEST='SOMM',
           NOM_PARA='DX',
           VALE=3624.0,
           PRECISION=1.E-2,
           REFERENCE='ANALYTIQUE',);


FIN();
