#  TITRE  ROTATION DES CONTRAINTES PRINCIPALES (WILLIAM)
# ======================================================================
# COPYRIGHT (C) 1991 - 2015  EDF R&D                  WWW.CODE-ASTER.ORG
# THIS PROGRAM IS FREE SOFTWARE; YOU CAN REDISTRIBUTE IT AND/OR MODIFY
# IT UNDER THE TERMS OF THE GNU GENERAL PUBLIC LICENSE AS PUBLISHED BY
# THE FREE SOFTWARE FOUNDATION; EITHER VERSION 2 OF THE LICENSE, OR
# (AT YOUR OPTION) ANY LATER VERSION.
#
# THIS PROGRAM IS DISTRIBUTED IN THE HOPE THAT IT WILL BE USEFUL, BUT
# WITHOUT ANY WARRANTY; WITHOUT EVEN THE IMPLIED WARRANTY OF
# MERCHANTABILITY OR FITNESS FOR A PARTICULAR PURPOSE. SEE THE GNU
# GENERAL PUBLIC LICENSE FOR MORE DETAILS.
#
# YOU SHOULD HAVE RECEIVED A COPY OF THE GNU GENERAL PUBLIC LICENSE
# ALONG WITH THIS PROGRAM; IF NOT, WRITE TO EDF R&D CODE_ASTER,
#    1 AVENUE DU GENERAL DE GAULLE, 92141 CLAMART CEDEX, FRANCE.
# ======================================================================
#
#  TEST B DU  BENCHMARK SUR L EVALUATION DES MODELES POUR LE BETON (2001)
#  TEST LOI DE MAZARS
#  COMPARAISON AVEC LES RESULTATS OBTENUS PAR CASTEM (VERSION 2001) AU LGCNSN
# ________________________________________________________
#  MAILLAGE : 1 CUB8
#
#  CHARGEMENT : 1 - direction (DEPSxx,DEPSyy,DEPSxy)=(1,-NU,0)jusqu a la contrainte max
#               2 - direction (DEPSxx,DEPSyy,DEPSxy)=(1, 1.5, 1) jusqu a EPSxx=0.0015
# ________________________________________________________

DEBUT(CODE=_F(NIV_PUB_WEB='INTRANET'),DEBUG=_F(SDVERI='NON'))
# SDVERI='NON' car la verification est trop couteuse en CPU
MAIL=LIRE_MAILLAGE();
MODELE=AFFE_MODELE(AFFE    =_F(TOUT = 'OUI',
                               PHENOMENE='MECANIQUE',
                               MODELISATION='3D'),
                   MAILLAGE=MAIL);

INCLUDE(DONNEE='ssnv215.mater.datg')

SECHI=CREA_CHAMP(TYPE_CHAM='NOEU_TEMP_R',
                OPERATION='AFFE',
                MAILLAGE=MAIL,
                AFFE=_F(TOUT='OUI',
                        NOM_CMP='TEMP',
                        VALE=1.),);

SECHF=CREA_CHAMP(TYPE_CHAM='NOEU_TEMP_R',
                OPERATION='AFFE',
                MAILLAGE=MAIL,
                AFFE=_F(TOUT='OUI',
                        NOM_CMP='TEMP',
                        VALE=1.),);

SECH=CREA_RESU(OPERATION='AFFE',
                TYPE_RESU='EVOL_THER',
                NOM_CHAM='TEMP',
                AFFE=(_F(CHAM_GD=SECHI,
                         INST=0.0,),
                      _F(CHAM_GD=SECHF,
                         INST=100.0,),),);

TEMPI=CREA_CHAMP(TYPE_CHAM='NOEU_TEMP_R',
                OPERATION='AFFE',
                MAILLAGE=MAIL,
                AFFE=_F(TOUT='OUI',
                        NOM_CMP='TEMP',
                        VALE=20.0,),);

TEMPF=CREA_CHAMP(TYPE_CHAM='NOEU_TEMP_R',
                OPERATION='AFFE',
                MAILLAGE=MAIL,
                AFFE=_F(TOUT='OUI',
                        NOM_CMP='TEMP',
                        VALE=20.0,),);

TEMP=CREA_RESU(OPERATION='AFFE',
                TYPE_RESU='EVOL_THER',
                NOM_CHAM='TEMP',
                AFFE=(
                _F(CHAM_GD=TEMPI,
                      INST=0.0,),
                _F(CHAM_GD=TEMPF,
                      INST=100.0,),),);

CAR_MAT=AFFE_MATERIAU(MAILLAGE=MAIL,
                       AFFE=(_F(TOUT='OUI',
                                MATER=MATERIAU,),),
                       AFFE_VARC=(_F(TOUT='OUI',
                                    EVOL=SECH,
                                    NOM_VARC='SECH', VALE_REF=0.,
                                    NOM_CHAM='TEMP',
                                    PROL_DROITE='LINEAIRE',
                                    PROL_GAUCHE='CONSTANT',),
                                  _F(TOUT='OUI',
                                    EVOL=TEMP,
                                    NOM_VARC='TEMP',
                                    NOM_CHAM='TEMP',
                                    VALE_REF = 20.),),
                        );

CLIM=AFFE_CHAR_MECA(DDL_IMPO=(_F(DX=0.0,
                                 GROUP_NO='COTEG'),
                              _F(DZ=0.0,
                                 NOEUD='N1',
                                 DY=0.0),
                              _F(NOEUD='N5',
                                 DY=0.0),),
                    MODELE=MODELE);
CHAR1=AFFE_CHAR_MECA(DDL_IMPO=(_F(NOEUD=('N2','N6'),
                                  DY=0.0),
                               _F(DX=1.0,
                                  GROUP_NO='COTED'),
                               _F(DY=-0.125,
                                  GROUP_NO='HAUT'),),
                     MODELE=MODELE);
CHAR2=AFFE_CHAR_MECA(DDL_IMPO=(_F(DX=1.0,
                                 GROUP_NO='COTED'),
                              _F(NOEUD='N4',
                                 DY=1.5),
                              _F(NOEUD='N8',
                                 DY=1.5),
                              _F(NOEUD='N3',
                                 DY=3.5),
                              _F(NOEUD='N7',
                                 DY=3.5),
                              _F(NOEUD='N2',
                                 DY=2.0),
                              _F(NOEUD='N6',
                                 DY=2.0),),
                     MODELE=MODELE);
L_INS1=DEFI_LIST_REEL(DEBUT=0.0,
                      INTERVALLE=(_F(JUSQU_A=1.0e-2,
                                     NOMBRE=10),
                                  _F(JUSQU_A=5.0e-2,
                                     NOMBRE=300) ,), );
FCT_MUL1=DEFI_FONCTION(INTERPOL=('LIN','LIN'),
                       NOM_PARA='INST',
                       VALE=(0.0,0.0,1.0e-2,0.84E-04),);
FCT_MUL2=DEFI_FONCTION(INTERPOL=('LIN','LIN'),
                       NOM_PARA='INST',
                       VALE=(1.0e-2,0.0,5.0e-2,4.76E-4),);
#7.88E-4
RES1=STAT_NON_LINE(CHAM_MATER=CAR_MAT,
                   MODELE=MODELE,
                   TITRE='BENCH-B',
                   CONVERGENCE=_F(ITER_GLOB_MAXI=20,
                                  RESI_GLOB_MAXI=1e-06,
                                  RESI_GLOB_RELA=1.E-06),
                   COMPORTEMENT  =_F(RELATION='BETON_RAG',),
                   INCREMENT  =_F(LIST_INST=L_INS1,
                                  INST_FIN = 1.0e-2 ),
                   NEWTON     =_F(PREDICTION='ELASTIQUE',
                                  MATRICE='TANGENTE'),
                   EXCIT      =(_F(CHARGE=CLIM),
                                _F(CHARGE=CHAR1,
                                   FONC_MULT=FCT_MUL1),), );
RES1=STAT_NON_LINE(reuse     = RES1,
                   CHAM_MATER=CAR_MAT,
                   MODELE    =MODELE,
                   TITRE     ='BENCH-A',
                   CONVERGENCE=_F(ITER_GLOB_MAXI=30,
                                  RESI_GLOB_RELA=1.E-04,),
                   COMPORTEMENT  =_F(RELATION='BETON_RAG',
                                  DEFORMATION='PETIT',),
                   INCREMENT  =_F(
                                  LIST_INST=L_INS1,
                                  INST_FIN = 5.0e-2,
                                  ),
                   NEWTON=_F(PREDICTION='ELASTIQUE',
                                 MATRICE='TANGENTE',
                                  REAC_ITER  = 1,
                                  REAC_INCR  = 1,),
                   EXCIT    =(_F(CHARGE=CLIM),
                              _F(CHARGE=CHAR2,
                                 TYPE_CHARGE='DIDI',
                                 FONC_MULT=FCT_MUL2),),
                  ETAT_INIT= _F( EVOL_NOLI=RES1 ),
                  ARCHIVAGE= _F(LIST_INST = L_INS1), );
RES1=CALC_CHAMP(reuse=RES1,RESULTAT=RES1,NUME_ORDRE=(10,25,310),CONTRAINTE=('SIGM_ELNO'),VARI_INTERNE=('VARI_ELNO'),DEFORMATION=('EPSI_ELNO'))

RES1=CALC_CHAMP  ( reuse  = RES1,
                RESULTAT=RES1,
                NUME_ORDRE = (10,25,310),
                DEFORMATION='EPSI_NOEU',CONTRAINTE='SIGM_NOEU',VARI_INTERNE='VARI_NOEU',
                );


TEST_RESU(RESU=(_F(NUME_ORDRE=10,
                   RESULTAT=RES1,
                   NOM_CHAM='EPSI_NOEU',
                   NOEUD='N1',
                   NOM_CMP='EPXX',
                   VALE_CALC=8.4E-05,
                   TOLE_MACHINE=1.E-3,
                   CRITERE='RELATIF',
                   MAILLE='M1',),
                _F(NUME_ORDRE=10,
                   RESULTAT=RES1,
                   NOM_CHAM='EPSI_NOEU',
                   NOEUD='N1',
                   NOM_CMP='EPYY',
                   VALE_CALC=-1.05E-05,
                   TOLE_MACHINE=1.E-3,
                   CRITERE='RELATIF',
                   MAILLE='M1',),
                _F(NUME_ORDRE=10,
                   RESULTAT=RES1,
                   NOM_CHAM='EPSI_NOEU',
                   NOEUD='N1',
                   NOM_CMP='EPXY',
                   VALE_CALC=0.,
                   CRITERE='ABSOLU',
                   MAILLE='M1',),
                _F(NUME_ORDRE=10,
                   RESULTAT=RES1,
                   NOM_CHAM='SIGM_NOEU',
                   NOEUD='N1',
                   NOM_CMP='SIXX',
                   VALE_CALC=2.11407286494,
                   TOLE_MACHINE=1.E-3,
                   CRITERE='RELATIF',
                   MAILLE='M1',),
                _F(NUME_ORDRE=10,
                   RESULTAT=RES1,
                   NOM_CHAM='SIGM_NOEU',
                   NOEUD='N1',
                   NOM_CMP='SIYY',
                   VALE_CALC=0.0857265089565,
                   TOLE_MACHINE=1.E-3,
                   CRITERE='RELATIF',
                   MAILLE='M1',),
                _F(NUME_ORDRE=10,
                   RESULTAT=RES1,
                   NOM_CHAM='SIGM_NOEU',
                   NOEUD='N1',
                   NOM_CMP='SIXY',
                   VALE_CALC=0.,
                   CRITERE='ABSOLU',
                   MAILLE='M1',),
                _F(NUME_ORDRE=10,
                   RESULTAT=RES1,
                   NOM_CHAM='VARI_NOEU',
                   NOEUD='N1',
                   NOM_CMP='V15',
                   VALE_CALC=0.217815753971,
                   TOLE_MACHINE=1.E-4,
                   CRITERE='RELATIF',
                   MAILLE='M1',),
                _F(NUME_ORDRE=25,
                   RESULTAT=RES1,
                   NOM_CHAM='EPSI_NOEU',
                   NOEUD='N1',
                   NOM_CMP='EPXX',
                   VALE_CALC=0.0001078,
                   TOLE_MACHINE=1.E-3,
                   CRITERE='RELATIF',
                   MAILLE='M1',),
                _F(NUME_ORDRE=25,
                   RESULTAT=RES1,
                   NOM_CHAM='EPSI_NOEU',
                   NOEUD='N1',
                   NOM_CMP='EPYY',
                   VALE_CALC=2.52E-05,
                   TOLE_MACHINE=1.E-3,
                   CRITERE='RELATIF',
                   MAILLE='M1',),
                _F(NUME_ORDRE=25,
                   RESULTAT=RES1,
                   NOM_CHAM='EPSI_NOEU',
                   NOEUD='N1',
                   NOM_CMP='EPXY',
                   VALE_CALC=2.38E-05,
                   TOLE_MACHINE=1.E-3,
                   CRITERE='RELATIF',
                   MAILLE='M1',),
                _F(NUME_ORDRE=25,
                   RESULTAT=RES1,
                   NOM_CHAM='SIGM_NOEU',
                   NOEUD='N1',
                   NOM_CMP='SIXX',
                   VALE_CALC=2.43986775381,
                   TOLE_MACHINE=1.E-3,
                   CRITERE='RELATIF',
                   MAILLE='M1',),
                _F(NUME_ORDRE=25,
                   RESULTAT=RES1,
                   NOM_CHAM='SIGM_NOEU',
                   NOEUD='N1',
                   NOM_CMP='SIYY',
                   VALE_CALC=1.16126532936,
                   TOLE_MACHINE=1.E-3,
                   CRITERE='RELATIF',
                   MAILLE='M1',),
                _F(NUME_ORDRE=25,
                   RESULTAT=RES1,
                   NOM_CHAM='SIGM_NOEU',
                   NOEUD='N1',
                   NOM_CMP='SIXY',
                   VALE_CALC=0.380011927667,
                   TOLE_MACHINE=1.E-3,
                   CRITERE='RELATIF',
                   MAILLE='M1',),
                _F(NUME_ORDRE=25,
                   RESULTAT=RES1,
                   NOM_CHAM='VARI_NOEU',
                   NOEUD='N1',
                   NOM_CMP='V15',
                   VALE_CALC=0.33754706489,
                   TOLE_MACHINE=1.E-3,
                   CRITERE='RELATIF',
                   MAILLE='M1',),
                _F(NUME_ORDRE=310,
                   RESULTAT=RES1,
                   NOM_CHAM='EPSI_NOEU',
                   NOEUD='N1',
                   NOM_CMP='EPXX',
                   VALE_CALC=0.00056,
                   TOLE_MACHINE=1.E-3,
                   CRITERE='RELATIF',
                   MAILLE='M1',),
                _F(NUME_ORDRE=310,
                   RESULTAT=RES1,
                   NOM_CHAM='EPSI_NOEU',
                   NOEUD='N1',
                   NOM_CMP='EPYY',
                   VALE_CALC=0.0007035,
                   TOLE_MACHINE=1.E-3,
                   CRITERE='RELATIF',
                   MAILLE='M1',),
                _F(NUME_ORDRE=310,
                   RESULTAT=RES1,
                   NOM_CHAM='EPSI_NOEU',
                   NOEUD='N1',
                   NOM_CMP='EPXY',
                   VALE_CALC=0.000476,
                   TOLE_MACHINE=1.E-3,
                   CRITERE='RELATIF',
                   MAILLE='M1',),
                _F(NUME_ORDRE=310,
                   RESULTAT=RES1,
                   NOM_CHAM='SIGM_NOEU',
                   NOEUD='N1',
                   NOM_CMP='SIXX',
                   VALE_CALC=0.230025837378,
                   TOLE_MACHINE=1.E-3,
                   CRITERE='RELATIF',
                   MAILLE='M1',),
                _F(NUME_ORDRE=310,
                   RESULTAT=RES1,
                   NOM_CHAM='SIGM_NOEU',
                   NOEUD='N1',
                   NOM_CMP='SIYY',
                   VALE_CALC=0.292533877035,
                   TOLE_MACHINE=1.E-3,
                   CRITERE='RELATIF',
                   MAILLE='M1',),
                _F(NUME_ORDRE=310,
                   RESULTAT=RES1,
                   NOM_CHAM='SIGM_NOEU',
                   NOEUD='N1',
                   NOM_CMP='SIXY',
                   VALE_CALC=-0.255735657202,
                   TOLE_MACHINE=1.E-3,
                   CRITERE='RELATIF',
                   MAILLE='M1',),
                _F(NUME_ORDRE=310,
                   RESULTAT=RES1,
                   NOM_CHAM='VARI_NOEU',
                   NOEUD='N1',
                   NOM_CMP='V15',
                   VALE_CALC=0.959248001438,
                   TOLE_MACHINE=1.E-3,
                   CRITERE='RELATIF',
                   MAILLE='M1',),
                ),
          )

FIN() ;
