# MODIF  DATE 09/05/2007   AUTEUR REZETTE C.REZETTE 
# TITRE ESSAI DE RELAXATION EN 3D VENDOCHAB
#            CONFIGURATION MANAGEMENT OF EDF VERSION
# ======================================================================
# COPYRIGHT (C) 1991 - 2002  EDF R&D                  WWW.CODE-ASTER.ORG
# THIS PROGRAM IS FREE SOFTWARE; YOU CAN REDISTRIBUTE IT AND/OR MODIFY  
# IT UNDER THE TERMS OF THE GNU GENERAL PUBLIC LICENSE AS PUBLISHED BY  
# THE FREE SOFTWARE FOUNDATION; EITHER VERSION 2 OF THE LICENSE, OR     
# (AT YOUR OPTION) ANY LATER VERSION.                                                    
#                                                                       
# THIS PROGRAM IS DISTRIBUTED IN THE HOPE THAT IT WILL BE USEFUL, BUT   
# WITHOUT ANY WARRANTY; WITHOUT EVEN THE IMPLIED WARRANTY OF            
# MERCHANTABILITY OR FITNESS FOR A PARTICULAR PURPOSE. SEE THE GNU      
# GENERAL PUBLIC LICENSE FOR MORE DETAILS.                              
#                                                                       
# YOU SHOULD HAVE RECEIVED A COPY OF THE GNU GENERAL PUBLIC LICENSE     
# ALONG WITH THIS PROGRAM; IF NOT, WRITE TO EDF R&D CODE_ASTER,         
#    1 AVENUE DU GENERAL DE GAULLE, 92141 CLAMART CEDEX, FRANCE.        
# ======================================================================
#----------------------------------------------------------------------
#    TEST MODELE VISCO-PLASTIQUE COUPLE AVEC L'ENDOMMAGEMENT
#     ISOTROPE DE CHABOCHE EN ANISOTHERME ( VENDOCHAB)
#    ESSAI EN TRACTION (RELAXATION) IMPLICITE
#    DEPLACEMENT IMPOSE A TEMPERATURE ANISOTHERME DANS LE TEMPS
#----------------------------------------------------------------------
#         ELEMENT HEXA 8 NOEUDS EN TRACTION
#              ETAT UNIAXIAL DE CONTRAINTE DEFORMATION
#       UNITES : NEWTON , MILLIMETRE , SECONDE (N,MM,S,->MPA)
#
#               Z       A                     A = 3 MM
#               L<------------->
#               L                             L = 30 MM
#                / N5            N8
#              >O--------------O      X
#              /L             /L      L
#         N6  / L         N7 / L      L
#           >O--+-----------O  L      L
#            L  L           L  L      L
#            L  L           L  L      L
#            L  L           L  L      L  L
#            L  L           L  L      L
#            L  L           L  L      L
#            L  L           L  L      L
#            L  L           L  L      L
#            L  L           L  L      L
#            L  L           L  L      L
#            L  L/ N1       L  L N4   L
#            L >O-----------L--O-> Y  V
#            L /V           L /
#         N2 L/          N3 L/
#           >O--------------O
#
#          /
#         X
#
#----------------------------------------------------------------------
#
#

DEBUT(  CODE=_F( NOM = 'SSNV126C',NIV_PUB_WEB='INTERNET'))

#----------------------------------------------------------------------
#              TEST MODELE VENDOCHAB 3D
#      PAS DE CHARGEMENT THERMIQUE (ALPHA = 0 )
#      RELAXATION D UNE EPROUVETTE PARRALELIPIPEDIQUE
#      EN TRACTION UNIAXIALE
#      CHAMPS DE TEMPERATURE ANISOTHERME
#      K_D NE DEPEND QUE DE LA TEMPERATURE (FONCTION)
#----------------------------------------------------------------------
#
EPROU=LIRE_MAILLAGE( )

CT1=CREA_CHAMP(  OPERATION='AFFE', TYPE_CHAM='NOEU_TEMP_R',
    MAILLAGE=EPROU,AFFE=(   
   _F(   NOEUD = 'N1',      NOM_CMP = 'TEMP', VALE = 1000.),
   _F(   NOEUD = 'N2',      NOM_CMP = 'TEMP', VALE = 1000.),
   _F(   NOEUD = 'N3',      NOM_CMP = 'TEMP', VALE = 1000.),
   _F(   NOEUD = 'N4',      NOM_CMP = 'TEMP', VALE = 1000.),
   _F(   NOEUD = 'N5',      NOM_CMP = 'TEMP', VALE = 1000.),
   _F(   NOEUD = 'N6',      NOM_CMP = 'TEMP', VALE = 1000.),
   _F(   NOEUD = 'N7',      NOM_CMP = 'TEMP', VALE = 1000.),
   _F(   NOEUD = 'N8',      NOM_CMP = 'TEMP', VALE = 1000.))
  )

CT2=CREA_CHAMP(  OPERATION='AFFE', TYPE_CHAM='NOEU_TEMP_R',
    MAILLAGE=EPROU,AFFE=(    
   _F(   NOEUD = 'N1',      NOM_CMP = 'TEMP', VALE = 1025.),
   _F(   NOEUD = 'N2',      NOM_CMP = 'TEMP', VALE = 1025.),
   _F(   NOEUD = 'N3',      NOM_CMP = 'TEMP', VALE = 1025.),
   _F(   NOEUD = 'N4',      NOM_CMP = 'TEMP', VALE = 1025.),
   _F(   NOEUD = 'N5',      NOM_CMP = 'TEMP', VALE = 1025.),
   _F(   NOEUD = 'N6',      NOM_CMP = 'TEMP', VALE = 1025.),
   _F(   NOEUD = 'N7',      NOM_CMP = 'TEMP', VALE = 1025.),
   _F(   NOEUD = 'N8',      NOM_CMP = 'TEMP', VALE = 1025.))
  )

CTHER=CREA_RESU(    OPERATION='AFFE', TYPE_RESU='EVOL_THER',
                      NOM_CHAM='TEMP',AFFE=(
                     
              _F(  CHAM_GD = CT1,   INST = 0.0),
              _F(  CHAM_GD = CT1,   INST = 200000.0),
              _F(  CHAM_GD = CT2,   INST = 2000000.0),
              _F(  CHAM_GD = CT2,   INST = 3000000.0))
  )

EPD3=AFFE_MODELE(            MAILLAGE=EPROU,
                                    AFFE=_F(   PHENOMENE = 'MECANIQUE',
                                            MODELISATION = '3D',
                                            MAILLE = 'MA1'))

SEUIL=DEFI_CONSTANTE(   VALE=0.)

A1=DEFI_CONSTANTE(   VALE=0.)

A2=DEFI_CONSTANTE(   VALE=0.)

N_T=DEFI_FONCTION(      NOM_PARA='TEMP',
                            PROL_DROITE='CONSTANT',
                           PROL_GAUCHE='CONSTANT',
                          VALE=( 900.,     12.2,
                                 1000.,    10.8,
                                 1025.,    10.45,       ))

M_T=DEFI_FONCTION(      NOM_PARA='TEMP',
                            PROL_DROITE='CONSTANT',
                           PROL_GAUCHE='CONSTANT',
                          VALE=( 900.,    10.5,
                                 1000.,    9.8,
                                 1025.,    9.625,       ))

K_T=DEFI_FONCTION(      NOM_PARA='TEMP',
                            PROL_DROITE='CONSTANT',
                           PROL_GAUCHE='CONSTANT',
                          VALE=( 900.,     2110.,
                                 1000.,    1450.,
                                 1025.,    1285.,       ))

A_T=DEFI_FONCTION(      NOM_PARA='TEMP',
                            PROL_DROITE='CONSTANT',
                           PROL_GAUCHE='CONSTANT',
                          VALE=( 900.,     3191.62,
                                 1000.,    2511.35,
                                 1025.,    2341.3,     ))

R_T=DEFI_FONCTION(      NOM_PARA='TEMP',
                            PROL_DROITE='CONSTANT',
                           PROL_GAUCHE='CONSTANT',
                          VALE=( 900.,     6.3,
                                 1000.,    5.2,
                                 1025.,    4.925,       ))

KD_T=DEFI_FONCTION(      NOM_PARA='TEMP',
                            PROL_DROITE='LINEAIRE',
                           PROL_GAUCHE='LINEAIRE',
                          VALE=( 900.,    5.,
                                 1000.,   5.,
                                 1050.,   5., ))

F_E=DEFI_CONSTANTE(   VALE=150000.)

F_NU=DEFI_CONSTANTE(   VALE=0.3)

F_ALPHA=DEFI_CONSTANTE(   VALE=0.)

ACIER=DEFI_MATERIAU(      ELAS_FO=_F(    E = F_E,
                                         NU = F_NU,
                                         ALPHA = F_ALPHA, TEMP_DEF_ALPHA=1000.0,),

                         VENDOCHAB_FO=_F(   S_VP = SEUIL,
                                           SEDVP1 = A1,
                                           SEDVP2 = A2,
                                           N_VP = N_T,
                                           M_VP = M_T,
                                           K_VP = K_T,
                                           A_D = A_T,
                                           R_D = R_T,
                                           K_D = KD_T))


LINST=DEFI_LIST_REEL(              DEBUT=0.,INTERVALLE=(
                             
                           _F(  JUSQU_A = .2,        NOMBRE = 10),
                           _F(  JUSQU_A = 2.,        NOMBRE = 5),
                           _F(  JUSQU_A = 20.,       NOMBRE = 5),
                           _F(  JUSQU_A = 200.,      NOMBRE = 5),
                           _F(  JUSQU_A = 2000.,     NOMBRE = 5),
                           _F(  JUSQU_A = 20000.,    NOMBRE = 5),
                           _F(  JUSQU_A = 200000.,   NOMBRE = 5),
                           _F(  JUSQU_A = 1000000.,  NOMBRE = 10),
                           _F(  JUSQU_A = 1600000.,  NOMBRE = 10),
                           _F(  JUSQU_A = 1700000.,  NOMBRE = 10))
                                         )

COND_LIM=AFFE_CHAR_MECA(             MODELE=EPD3,
                                DDL_IMPO=(
                                  
                     _F( NOEUD = 'N1',         DX = 0., DY = 0., DZ = 0.),
                     _F( NOEUD = 'N2',                DY = 0., DZ = 0.),
                     _F( NOEUD = 'N3',                       DZ = 0.),
                     _F( NOEUD = 'N4',         DX = 0.,        DZ = 0.),
                     _F( NOEUD = 'N5',         DX = 0., DY = 0., DZ = 0.1),
                     _F( NOEUD = 'N6',                DY = 0., DZ = 0.1),
                     _F( NOEUD = 'N7',                       DZ = 0.1),
                     _F( NOEUD = 'N8',         DX = 0.,        DZ = 0.1))
                           )

COEF_TR=DEFI_FONCTION(      NOM_PARA='INST',
                                  VALE=(
                                            0.,   0.,
                                            0.1,  1.,
                                          100.,   1.,
                                      1500000.,   1.,
                                      2400000.,   1.,
                                      2450000.,   1.,
                                      3000000.,   1.,
                        ))

MAT=AFFE_MATERIAU(            MAILLAGE=EPROU,
                                    AFFE=_F(  MAILLE = 'MA1',
                                           MATER = ACIER,),
                                    AFFE_VARC=_F( TOUT='OUI',
                                           EVOL=CTHER,
                                           NOM_VARC='TEMP',
                                           NOM_CHAM='TEMP',
                                           VALE_REF=1000.),)


########################################################
# CALCUL EXPLICITE POUR ETABLIR LA SOLUTION DE REFERENCE
# LORSQUE KD_T NE DEPEND QUE DE T
########################################################


SOLNK=STAT_NON_LINE( 
                             TITRE='TEST RELAXATION SIMPLE',
                            MODELE=EPD3,
                        CHAM_MATER=MAT,
                             EXCIT=_F( 
                CHARGE = COND_LIM,
                FONC_MULT = COEF_TR),
                         COMP_INCR=_F( 
                RELATION = 'VENDOCHAB',
                DEFORMATION = 'PETIT',
                RESI_INTE_RELA = 1.E-6,
                ITER_INTE_MAXI = 20,
                RESO_INTE = 'RUNGE_KUTTA_2',
                TOUT = 'OUI'),
                         INCREMENT=_F( 
                LIST_INST = LINST,
                NUME_INST_FIN = 60),
                            NEWTON=_F( 
                MATRICE = 'ELASTIQUE',
                REAC_INCR = 5,
                REAC_ITER = 3),
                       CONVERGENCE=_F( 
                ITER_GLOB_MAXI = 20,
                RESI_GLOB_RELA = 1.E-6)
              )

SOLNK=CALC_ELEM( reuse=SOLNK,
                            OPTION=(
                  'SIEF_ELNO_ELGA',  'VARI_ELNO_ELGA',),
                          RESULTAT=SOLNK,
              )

TEST_RESU(RESU=(
  _F(  RESULTAT = SOLNK,  NOM_CHAM = 'SIEF_ELNO_ELGA',  NUME_ORDRE = 20,
                 MAILLE = 'MA1',  NOEUD = 'N1',  NOM_CMP = 'SIZZ', VALE = 2.5302E+02,
         PRECISION = 5.0E-3),

  _F(  RESULTAT = SOLNK,  NOM_CHAM = 'VARI_ELNO_ELGA',  NUME_ORDRE = 20,
                 MAILLE = 'MA1',  NOEUD = 'N1',
                 NOM_CMP = 'V7',            VALE = 1.6461E-03,
         PRECISION = 5.0E-3),

  _F(  RESULTAT = SOLNK,  NOM_CHAM = 'VARI_ELNO_ELGA',  NUME_ORDRE = 20,
                 MAILLE = 'MA1',  NOEUD = 'N1',
                 NOM_CMP = 'V8',            VALE = 1.646E-03,
         PRECISION = 5.0E-3),

  _F(  RESULTAT = SOLNK,  NOM_CHAM = 'VARI_ELNO_ELGA',  NUME_ORDRE = 20,
                 MAILLE = 'MA1',  NOEUD = 'N1',
                 NOM_CMP = 'V9',            VALE = 2.32E-04,
         PRECISION = 5.0E-3),

  _F(  RESULTAT = SOLNK,  NOM_CHAM = 'SIEF_ELNO_ELGA',  NUME_ORDRE = 30,
                 MAILLE = 'MA1',  NOEUD = 'N1',  NOM_CMP = 'SIZZ', VALE = 1.6436E+02,
         PRECISION = 5.0E-3),

  _F(  RESULTAT = SOLNK,  NOM_CHAM = 'VARI_ELNO_ELGA',  NUME_ORDRE = 30,
                 MAILLE = 'MA1',  NOEUD = 'N1',
                 NOM_CMP = 'V7',            VALE = 2.2345E-03,
         PRECISION = 5.0E-3),

  _F(  RESULTAT = SOLNK,  NOM_CHAM = 'VARI_ELNO_ELGA',  NUME_ORDRE = 30,
                 MAILLE = 'MA1',  NOEUD = 'N1',
                 NOM_CMP = 'V8',            VALE = 2.2339E-03,
         PRECISION = 5.0E-3),

  _F(  RESULTAT = SOLNK,  NOM_CHAM = 'VARI_ELNO_ELGA',  NUME_ORDRE = 30,
                 MAILLE = 'MA1',  NOEUD = 'N1',
                 NOM_CMP = 'V9',            VALE = 2.7399E-03,
         PRECISION = 5.0E-3),

  _F(  RESULTAT = SOLNK,  NOM_CHAM = 'SIEF_ELNO_ELGA',  NUME_ORDRE = 40,
                 MAILLE = 'MA1',  NOEUD = 'N1',  NOM_CMP = 'SIZZ', VALE = 1.0216E+02,
         PRECISION = 5.0E-3),

  _F(  RESULTAT = SOLNK,  NOM_CHAM = 'VARI_ELNO_ELGA',  NUME_ORDRE = 40,
                 MAILLE = 'MA1',  NOEUD = 'N1',
                 NOM_CMP = 'V7',            VALE = 2.6329E-03,
         PRECISION = 5.0E-3),

  _F(  RESULTAT = SOLNK,  NOM_CHAM = 'VARI_ELNO_ELGA',  NUME_ORDRE = 40,
                 MAILLE = 'MA1',  NOEUD = 'N1',
                 NOM_CMP = 'V8',            VALE = 2.62828E-03,
         PRECISION = 5.0E-3),

  _F(  RESULTAT = SOLNK,  NOM_CHAM = 'VARI_ELNO_ELGA',  NUME_ORDRE = 40,
                 MAILLE = 'MA1',  NOEUD = 'N1',
                 NOM_CMP = 'V9',            VALE = 2.7561E-02,
         PRECISION = 5.0E-3),

  _F(  RESULTAT = SOLNK,  NOM_CHAM = 'SIEF_ELNO_ELGA',  NUME_ORDRE = 50,
                 MAILLE = 'MA1',  NOEUD = 'N1',  NOM_CMP = 'SIZZ', VALE = 7.992E+01,
         PRECISION = 5.0E-3),

  _F(  RESULTAT = SOLNK,  NOM_CHAM = 'VARI_ELNO_ELGA',  NUME_ORDRE = 50,
                 MAILLE = 'MA1',  NOEUD = 'N1',
                 NOM_CMP = 'V7',            VALE = 2.762699E-03,
         PRECISION = 5.0E-3),

  _F(  RESULTAT = SOLNK,  NOM_CHAM = 'VARI_ELNO_ELGA',  NUME_ORDRE = 50,
                 MAILLE = 'MA1',  NOEUD = 'N1',
                 NOM_CMP = 'V8',            VALE = 2.75229E-03,
         PRECISION = 5.0E-3),

  _F(  RESULTAT = SOLNK,  NOM_CHAM = 'VARI_ELNO_ELGA',  NUME_ORDRE = 50,
                 MAILLE = 'MA1',  NOEUD = 'N1',
                 NOM_CMP = 'V9',            VALE = 6.62665E-02,
         PRECISION = 1.0E-2),

  _F(  RESULTAT = SOLNK,  NOM_CHAM = 'SIEF_ELNO_ELGA',  NUME_ORDRE = 60,
                 MAILLE = 'MA1',  NOEUD = 'N1',  NOM_CMP = 'SIZZ', VALE = 7.090E+01,
         PRECISION = 1.0E-2),

  _F(  RESULTAT = SOLNK,  NOM_CHAM = 'VARI_ELNO_ELGA',  NUME_ORDRE = 60,
                 MAILLE = 'MA1',  NOEUD = 'N1',
                 NOM_CMP = 'V7',            VALE = 2.8137E-03,
         PRECISION = 5.0E-3),

  _F(  RESULTAT = SOLNK,  NOM_CHAM = 'VARI_ELNO_ELGA',  NUME_ORDRE = 60,
                 MAILLE = 'MA1',  NOEUD = 'N1',
                 NOM_CMP = 'V8',            VALE = 2.7993E-03,
         PRECISION = 5.0E-3),

  _F(  RESULTAT = SOLNK,  NOM_CHAM = 'VARI_ELNO_ELGA',  NUME_ORDRE = 60,
                 MAILLE = 'MA1',  NOEUD = 'N1',
                 NOM_CMP = 'V9',            VALE = 9.02788E-02,
         PRECISION = 1.0E-2))
                 )

########################################################
# CALCUL IMPLICITE LORSQUE KD_T NE DEPEND QUE DE T
########################################################


SOLNL=STAT_NON_LINE( 
                             TITRE='TEST RELAXATION SIMPLE',
                            MODELE=EPD3,
                        CHAM_MATER=MAT,
                             EXCIT=_F( 
                CHARGE = COND_LIM,
                FONC_MULT = COEF_TR),
                         COMP_INCR=_F( 
                RELATION = 'VENDOCHAB',
                DEFORMATION = 'PETIT',
                RESI_INTE_RELA = 1.E-6,
                ITER_INTE_MAXI = 60,
                RESO_INTE = 'IMPLICITE',
                TOUT = 'OUI'),
                         INCREMENT=_F( 
                LIST_INST = LINST,
                NUME_INST_FIN = 60),
                            NEWTON=_F( 
                MATRICE = 'TANGENTE',
                REAC_ITER = 3),
                       CONVERGENCE=_F( 
                ITER_GLOB_MAXI = 20,
                RESI_GLOB_RELA = 1.E-6)
              )

SOLNL=CALC_ELEM( reuse=SOLNL,
                            OPTION=(
                  'SIEF_ELNO_ELGA',  'VARI_ELNO_ELGA',),
                          RESULTAT=SOLNL,
              )

TEST_RESU(RESU=(
  _F(  RESULTAT = SOLNL,  NOM_CHAM = 'SIEF_ELNO_ELGA',  NUME_ORDRE = 20,
                 MAILLE = 'MA1',  NOEUD = 'N1',  NOM_CMP = 'SIZZ', VALE = 2.5302E+02,
         PRECISION = 4.0E-2),

  _F(  RESULTAT = SOLNL,  NOM_CHAM = 'VARI_ELNO_ELGA',  NUME_ORDRE = 20,
                 MAILLE = 'MA1',  NOEUD = 'N1',
                 NOM_CMP = 'V7',            VALE = 1.6461E-03,
         PRECISION = 4.0E-2),

  _F(  RESULTAT = SOLNL,  NOM_CHAM = 'VARI_ELNO_ELGA',  NUME_ORDRE = 20,
                 MAILLE = 'MA1',  NOEUD = 'N1',
                 NOM_CMP = 'V8',            VALE = 1.646E-03,
         PRECISION = 4.0E-2),

  _F(  RESULTAT = SOLNL,  NOM_CHAM = 'VARI_ELNO_ELGA',  NUME_ORDRE = 20,
                 MAILLE = 'MA1',  NOEUD = 'N1',
                 NOM_CMP = 'V9',            VALE = 2.32E-04,
         PRECISION = 4.0E-2),

  _F(  RESULTAT = SOLNL,  NOM_CHAM = 'SIEF_ELNO_ELGA',  NUME_ORDRE = 30,
                 MAILLE = 'MA1',  NOEUD = 'N1',  NOM_CMP = 'SIZZ', VALE = 1.6436E+02,
         PRECISION = 4.0E-2),

  _F(  RESULTAT = SOLNL,  NOM_CHAM = 'VARI_ELNO_ELGA',  NUME_ORDRE = 30,
                 MAILLE = 'MA1',  NOEUD = 'N1',
                 NOM_CMP = 'V7',            VALE = 2.2345E-03,
         PRECISION = 4.0E-2),

  _F(  RESULTAT = SOLNL,  NOM_CHAM = 'VARI_ELNO_ELGA',  NUME_ORDRE = 30,
                 MAILLE = 'MA1',  NOEUD = 'N1',
                 NOM_CMP = 'V8',            VALE = 2.2339E-03,
         PRECISION = 4.0E-2),

  _F(  RESULTAT = SOLNL,  NOM_CHAM = 'VARI_ELNO_ELGA',  NUME_ORDRE = 30,
                 MAILLE = 'MA1',  NOEUD = 'N1',
                 NOM_CMP = 'V9',            VALE = 2.7399E-03,
         PRECISION = 4.0E-2),

  _F(  RESULTAT = SOLNL,  NOM_CHAM = 'SIEF_ELNO_ELGA',  NUME_ORDRE = 40,
                 MAILLE = 'MA1',  NOEUD = 'N1',  NOM_CMP = 'SIZZ', VALE = 1.0216E+02,
         PRECISION = 4.0E-2),

  _F(  RESULTAT = SOLNL,  NOM_CHAM = 'VARI_ELNO_ELGA',  NUME_ORDRE = 40,
                 MAILLE = 'MA1',  NOEUD = 'N1',
                 NOM_CMP = 'V7',            VALE = 2.6329E-03,
         PRECISION = 4.0E-2),

  _F(  RESULTAT = SOLNL,  NOM_CHAM = 'VARI_ELNO_ELGA',  NUME_ORDRE = 40,
                 MAILLE = 'MA1',  NOEUD = 'N1',
                 NOM_CMP = 'V8',            VALE = 2.62828E-03,
         PRECISION = 4.0E-2),

  _F(  RESULTAT = SOLNL,  NOM_CHAM = 'VARI_ELNO_ELGA',  NUME_ORDRE = 40,
                 MAILLE = 'MA1',  NOEUD = 'N1',
                 NOM_CMP = 'V9',            VALE = 2.7561E-02,
         PRECISION = 4.0E-2),

  _F(  RESULTAT = SOLNL,  NOM_CHAM = 'SIEF_ELNO_ELGA',  NUME_ORDRE = 50,
                 MAILLE = 'MA1',  NOEUD = 'N1',  NOM_CMP = 'SIZZ', VALE = 7.992E+01,
         PRECISION = 4.0E-2),

  _F(  RESULTAT = SOLNL,  NOM_CHAM = 'VARI_ELNO_ELGA',  NUME_ORDRE = 50,
                 MAILLE = 'MA1',  NOEUD = 'N1',
                 NOM_CMP = 'V7',            VALE = 2.762699E-03,
         PRECISION = 4.0E-2),

  _F(  RESULTAT = SOLNL,  NOM_CHAM = 'VARI_ELNO_ELGA',  NUME_ORDRE = 50,
                 MAILLE = 'MA1',  NOEUD = 'N1',
                 NOM_CMP = 'V8',            VALE = 2.75229E-03,
         PRECISION = 4.0E-2),

  _F(  RESULTAT = SOLNL,  NOM_CHAM = 'VARI_ELNO_ELGA',  NUME_ORDRE = 50,
                 MAILLE = 'MA1',  NOEUD = 'N1',
                 NOM_CMP = 'V9',            VALE = 6.62665E-02,
         PRECISION = 4.0E-2),

  _F(  RESULTAT = SOLNL,  NOM_CHAM = 'SIEF_ELNO_ELGA',  NUME_ORDRE = 60,
                 MAILLE = 'MA1',  NOEUD = 'N1',  NOM_CMP = 'SIZZ', VALE = 7.090E+01,
         PRECISION = 4.0E-2),

  _F(  RESULTAT = SOLNL,  NOM_CHAM = 'VARI_ELNO_ELGA',  NUME_ORDRE = 60,
                 MAILLE = 'MA1',  NOEUD = 'N1',
                 NOM_CMP = 'V7',            VALE = 2.8137E-03,
         PRECISION = 4.0E-2),

  _F(  RESULTAT = SOLNL,  NOM_CHAM = 'VARI_ELNO_ELGA',  NUME_ORDRE = 60,
                 MAILLE = 'MA1',  NOEUD = 'N1',
                 NOM_CMP = 'V8',            VALE = 2.7993E-03,
         PRECISION = 4.0E-2),

  _F(  RESULTAT = SOLNL,  NOM_CHAM = 'VARI_ELNO_ELGA',  NUME_ORDRE = 60,
                 MAILLE = 'MA1',  NOEUD = 'N1',
                 NOM_CMP = 'V9',            VALE = 9.02788E-02,
         PRECISION = 4.0E-2))
                 )

FIN()
#
