# MODIF  DATE 09/02/2007   AUTEUR MARKOVIC D.MARKOVIC 
# TITRE BARREAU FISSURE AVEC X-FEM
#            CONFIGURATION MANAGEMENT OF EDF VERSION
# ======================================================================
# COPYRIGHT (C) 1991 - 2007  EDF R&D                  WWW.CODE-ASTER.ORG
# THIS PROGRAM IS FREE SOFTWARE; YOU CAN REDISTRIBUTE IT AND/OR MODIFY  
# IT UNDER THE TERMS OF THE GNU GENERAL PUBLIC LICENSE AS PUBLISHED BY  
# THE FREE SOFTWARE FOUNDATION; EITHER VERSION 2 OF THE LICENSE, OR     
# (AT YOUR OPTION) ANY LATER VERSION.                                                    
#                                                                       
# THIS PROGRAM IS DISTRIBUTED IN THE HOPE THAT IT WILL BE USEFUL, BUT   
# WITHOUT ANY WARRANTY; WITHOUT EVEN THE IMPLIED WARRANTY OF            
# MERCHANTABILITY OR FITNESS FOR A PARTICULAR PURPOSE. SEE THE GNU      
# GENERAL PUBLIC LICENSE FOR MORE DETAILS.                              
#                                                                       
# YOU SHOULD HAVE RECEIVED A COPY OF THE GNU GENERAL PUBLIC LICENSE     
# ALONG WITH THIS PROGRAM; IF NOT, WRITE TO EDF R&D CODE_ASTER,         
#    1 AVENUE DU GENERAL DE GAULLE, 92141 CLAMART CEDEX, FRANCE.        
# ======================================================================

DEBUT(CODE=_F(NOM='SSNV195A',NIV_PUB_WEB='INTERNET',),);

PRE_GIBI();

MAILLE=LIRE_MAILLAGE(INFO=1,);

MAILLE=DEFI_GROUP(reuse = MAILLE,
                  MAILLAGE = MAILLE,
            CREA_GROUP_NO =(
                             _F(
                                NOM = 'H',
                                OPTION = 'ENV_SPHERE',
                                POINT  = (0.0,0.0,50.0),
                                RAYON = 1E-3,
                                PRECISION = 2E-3,
                                ),
                             _F(
                                NOM = 'B',
                                OPTION = 'ENV_SPHERE',
                                POINT  = (0.0,0.0,0.0),
                                RAYON = 1E-3,
                                PRECISION = 2E-3,
                                ),
                             _F(
                                NOM = 'M',
                                OPTION = 'ENV_SPHERE',
                                POINT  = (0.0,0.0,25.0),
                                RAYON = 1E-3,
                                PRECISION = 2E-3,
                                ),   
                            )    
           );


MAILLE=DEFI_GROUP(reuse = MAILLE,
                  MAILLAGE = MAILLE,
            CREA_GROUP_NO =(
                             _F(
                                NOM = 'face_haut',
                                OPTION = 'PLAN',
                                GROUP_NO_CENTRE  = 'H',
                                VECT_NORMALE = (0.0,0.0,1.0),
                                PRECISION = 1E-3,
                                ),
                             _F(
                                NOM = 'face_millieu',
                                OPTION = 'PLAN',
                                GROUP_NO_CENTRE  = 'M',
                                VECT_NORMALE = (0.0,0.0,1.0),
                                PRECISION = 1E-3,
                                ),
                             _F(
                                NOM = 'face_bas',
                                OPTION = 'PLAN',
                                GROUP_NO_CENTRE  = 'B',
                                VECT_NORMALE = (0.0,0.0,1.0),
                                PRECISION = 1E-3,
                                ),
#                              _F(GROUP_MA='VOL',),                            
                            )    
           );


MAILLAGE=CREA_MAILLAGE(MAILLAGE=MAILLE,
                       );

MAILLAGE=DEFI_GROUP(reuse =MAILLAGE,
                    MAILLAGE=MAILLAGE,
                    CREA_GROUP_NO=_F(GROUP_MA='VOL',),   
                    );

MAILLAG2=CREA_MAILLAGE(MAILLAGE=MAILLAGE,
                       LINE_QUAD=_F(GROUP_MA='VOL',),);
                       
MODELEIN=AFFE_MODELE(MAILLAGE=MAILLAG2,
                   AFFE=_F(GROUP_MA=('VOL',),
                            PHENOMENE='MECANIQUE',
                            MODELISATION='3D_XFEM',),
                     );        


LN1=FORMULE(NOM_PARA=('X','Y','Z'),VALE='Z-12.5');
LT1=FORMULE(NOM_PARA=('X','Y','Z'),VALE='X-10. '); 
                     
LN2=FORMULE(NOM_PARA=('X','Y','Z'),VALE='Z-37.5');
LT2=FORMULE(NOM_PARA=('X','Y','Z'),VALE='X-10. ');
     

FISS1=DEFI_FISS_XFEM(MODELE=MODELEIN,  
                    DEFI_FISS=_F(
                                 FONC_LT=LT1,
                                 FONC_LN=LN1,               
                                 ),
                    GROUP_MA_ENRI='VOL',
                    ORIE_FOND=_F(PFON_INI= (2.5 ,0. ,12.5 ),
                                 VECT_ORIE=(0. ,0. ,1. ),
                                 PT_ORIGIN=(2.5,2.5,12.5 ),),
                    INFO=1,
                    );

                    
FISS2=DEFI_FISS_XFEM(MODELE=MODELEIN,  
                    DEFI_FISS=_F(
                                 FONC_LT=LT2,
                                 FONC_LN=LN2,               
                                 ),
                    GROUP_MA_ENRI='VOL',
                    ORIE_FOND=_F(PFON_INI= (2.5 ,0. ,37.5 ),
                                 VECT_ORIE=(0. ,0. ,1. ),
                                 PT_ORIGIN=(2.5,2.5,37.5 ),),
                    INFO=1,
                    );
                    

                                                                
MODELEK=MODI_MODELE_XFEM(MODELE_IN=MODELEIN,
                         FISSURE=(FISS1,FISS2),
                         INFO=2,
                        );


E=205000.0E6
nu=0.3
ACIER=DEFI_MATERIAU(ELAS=_F(E=E,
                            NU=nu,
                            RHO=7800.0,),);

CHAMPMAT=AFFE_MATERIAU(MAILLAGE=MAILLAG2,
                       MODELE=MODELEK,
                       AFFE=(_F(GROUP_MA=('VOL',),
                                MATER=ACIER,
                                TEMP_REF=0.0,),
                             ),);
ZERO=0.0
DEPX=1.E-3
DEPY=2.E-3
DEPZ=3.E-3

CH1=AFFE_CHAR_MECA(MODELE=MODELEK,
                       DDL_IMPO=(
                                 _F(GROUP_NO='face_millieu',
                                    DX=ZERO,
                                    DY=ZERO,
                                    DZ=ZERO,
                                    ),
                                 _F(GROUP_NO='face_haut',
                                    DX=ZERO,
                                    DY=ZERO,   
                                    DZ=DEPZ,),
                                 _F(GROUP_NO='face_bas',
                                    DX=ZERO,
                                    DY=ZERO,
                                    DZ=-DEPZ,
                                    ),
                                 ),
                       INFO=1,);

        
CHXFEM=AFFE_CHAR_MECA(MODELE=MODELEK,
                      LIAISON_XFEM='OUI',);

L_INST=DEFI_LIST_REEL(DEBUT=0.0,
                      INTERVALLE=_F(JUSQU_A=1.0,
                                    NOMBRE=1,),);

UTOT1=STAT_NON_LINE(MODELE=MODELEK,
                   CHAM_MATER=CHAMPMAT,              
                   EXCIT=(_F(CHARGE=CH1,), 
                          _F(CHARGE=CHXFEM,),),                  
                   COMP_ELAS=_F(RELATION='ELAS',
                                GROUP_MA='VOL',),
                   INCREMENT=_F(LIST_INST=L_INST,),
                   CONVERGENCE=_F(ITER_GLOB_MAXI=8,
                                  RESI_GLOB_MAXI=1e-12*E*DEPX,
                                  ),               
                  SOLVEUR=_F(METHODE='MUMPS',
                             PCENT_PIVOT=250,
                             ),
                   ARCHIVAGE=_F(CHAM_EXCLU='VARI_ELGA',),
                   INFO=2,);
                              
DEP_A=POST_RELEVE_T(ACTION=_F(INTITULE='DEPLE',
                              NOEUD=('N1','N5','N9','N13','N17','N25',
                            'N29', 'N33','N37','N91',),
                                RESULTAT=UTOT1,
                                NOM_CHAM='DEPL',
                                NUME_ORDRE=1,
                                TOUT_CMP='OUI',
                                OPERATION='EXTRACTION',),);
IMPR_TABLE(TABLE=DEP_A,
           FORMAT='AGRAF',
           FORMAT_R='1PE12.5',
           FORMAT_C='MODULE_PHASE',
           IMPR_FONCTION='NON',);
           

DEPMILX=DEPX/2
DEPMILY=DEPY/2
DEPMILZ=DEPZ/2

TEST_TABLE(TABLE=DEP_A,
           NOM_PARA='DX',
           TYPE_TEST='MIN',
           VALE=ZERO,
           CRITERE='ABSOLU',
           PRECISION=1.0E-16,
           REFERENCE='ANALYTIQUE',);   

TEST_TABLE(TABLE=DEP_A,
           NOM_PARA='DX',
           TYPE_TEST='MAX',
           VALE=ZERO,
           CRITERE='ABSOLU',
           PRECISION=1.0E-16,
           REFERENCE='ANALYTIQUE',);  

TEST_TABLE(TABLE=DEP_A,
           NOM_PARA='DY',
           TYPE_TEST='MIN',
           VALE=ZERO,
           CRITERE='ABSOLU',
           PRECISION=1.0E-16,
           REFERENCE='ANALYTIQUE',);   

TEST_TABLE(TABLE=DEP_A,
           NOM_PARA='DY',
           TYPE_TEST='MAX',
           VALE=ZERO,
           CRITERE='ABSOLU',
           PRECISION=1.0E-16,
           REFERENCE='ANALYTIQUE',);  
           
TEST_TABLE(TABLE=DEP_A,
           NOM_PARA='DZ',
           FILTRE=_F(NOM_PARA='NOEUD',
                      VALE_K='N1',),
           VALE=-DEPZ,
           CRITERE='ABSOLU',
           PRECISION=1.0E-16,
           REFERENCE='ANALYTIQUE',);  

TEST_TABLE(TABLE=DEP_A,
           NOM_PARA='DZ',
           FILTRE=_F(NOM_PARA='NOEUD',
                      VALE_K='N5',),
           VALE=-DEPZ,
           CRITERE='ABSOLU',
           PRECISION=1.0E-16,
           REFERENCE='ANALYTIQUE',); 
          
TEST_TABLE(TABLE=DEP_A,
           NOM_PARA='DCZ',
           FILTRE=_F(NOM_PARA='NOEUD',
                      VALE_K='N9',),
           VALE=-DEPMILZ,
           CRITERE='ABSOLU',
           PRECISION=1.0E-16,
           REFERENCE='ANALYTIQUE',);

TEST_TABLE(TABLE=DEP_A,
           NOM_PARA='H1Z',
           FILTRE=_F(NOM_PARA='NOEUD',
                      VALE_K='N9',),
           VALE=DEPMILZ,
           CRITERE='ABSOLU',
           PRECISION=1.0E-16,
           REFERENCE='ANALYTIQUE',);

TEST_TABLE(TABLE=DEP_A,
           NOM_PARA='DCZ',
           FILTRE=_F(NOM_PARA='NOEUD',
                      VALE_K='N13',),
           VALE=-DEPMILZ,
           CRITERE='ABSOLU',
           PRECISION=1.0E-16,
           REFERENCE='ANALYTIQUE',);

TEST_TABLE(TABLE=DEP_A,
           NOM_PARA='H1Z',
           FILTRE=_F(NOM_PARA='NOEUD',
                      VALE_K='N13',),
           VALE=DEPMILZ,
           CRITERE='ABSOLU',
           PRECISION=1.0E-16,
           REFERENCE='ANALYTIQUE',);

TEST_TABLE(TABLE=DEP_A,
           NOM_PARA='DZ',
           FILTRE=_F(NOM_PARA='NOEUD',
                      VALE_K='N17',),
           VALE=ZERO,
           CRITERE='ABSOLU',
           PRECISION=1.0E-16,
           REFERENCE='ANALYTIQUE',);

TEST_TABLE(TABLE=DEP_A,
           NOM_PARA='DZ',
           FILTRE=_F(NOM_PARA='NOEUD',
                      VALE_K='N25',),
           VALE=ZERO,
           CRITERE='ABSOLU',
           PRECISION=1.0E-16,
           REFERENCE='ANALYTIQUE',);  
           
TEST_TABLE(TABLE=DEP_A,
           NOM_PARA='DCZ',
           FILTRE=_F(NOM_PARA='NOEUD',
                      VALE_K='N29',),
           VALE=DEPMILZ,
           CRITERE='ABSOLU',
           PRECISION=1.0E-11,
           REFERENCE='ANALYTIQUE',); 

TEST_TABLE(TABLE=DEP_A,
           NOM_PARA='H1Z',
           FILTRE=_F(NOM_PARA='NOEUD',
                      VALE_K='N29',),
           VALE=DEPMILZ,
           CRITERE='ABSOLU',
           PRECISION=1.0E-11,
           REFERENCE='ANALYTIQUE',);
           
TEST_TABLE(TABLE=DEP_A,
           NOM_PARA='DCZ',
           FILTRE=_F(NOM_PARA='NOEUD',
                      VALE_K='N33',),
           VALE=DEPMILZ,
           CRITERE='ABSOLU',
           PRECISION=1.0E-11,
           REFERENCE='ANALYTIQUE',); 

TEST_TABLE(TABLE=DEP_A,
           NOM_PARA='H1Z',
           FILTRE=_F(NOM_PARA='NOEUD',
                      VALE_K='N33',),
           VALE=DEPMILZ,
           CRITERE='ABSOLU',
           PRECISION=1.0E-11,
           REFERENCE='ANALYTIQUE',);

TEST_TABLE(TABLE=DEP_A,
           NOM_PARA='DZ',
           FILTRE=_F(NOM_PARA='NOEUD',
                      VALE_K='N37',),
           VALE=DEPZ,
           CRITERE='ABSOLU',
           PRECISION=1.0E-11,
           REFERENCE='ANALYTIQUE',);  
           
TEST_TABLE(TABLE=DEP_A,
           NOM_PARA='DZ',
           FILTRE=_F(NOM_PARA='NOEUD',
                      VALE_K='N91',),
           VALE=DEPZ,
           CRITERE='ABSOLU',
           PRECISION=1.0E-11,
           REFERENCE='ANALYTIQUE',);

MA_XFEM=POST_MAIL_XFEM(MODELE=MODELEK)

DEPL=POST_CHAM_XFEM(MAILLAGE=MA_XFEM,
                    MODELE=MODELEK,
                    NOM_CHAM='DEPL',
                    RESULTAT=UTOT1)

FIN();
