# MODIF  DATE 22/12/2009   AUTEUR ABBAS M.ABBAS 
#  CAS_TEST  : SSNV104I
#  TITRE : CONTACT DE DEUX SPHERES
# ssnv104i.para = tps_job 60 mem_job 100Mo ncpus 1 liste_test S
#            CONFIGURATION MANAGEMENT OF EDF VERSION
# ======================================================================
# COPYRIGHT (C) 1991 - 2002  EDF R&D                  WWW.CODE-ASTER.ORG
# THIS PROGRAM IS FREE SOFTWARE; YOU CAN REDISTRIBUTE IT AND/OR MODIFY
# IT UNDER THE TERMS OF THE GNU GENERAL PUBLIC LICENSE AS PUBLISHED BY
# THE FREE SOFTWARE FOUNDATION; EITHER VERSION 2 OF THE LICENSE, OR
# (AT YOUR OPTION) ANY LATER VERSION.
#
# THIS PROGRAM IS DISTRIBUTED IN THE HOPE THAT IT WILL BE USEFUL, BUT
# WITHOUT ANY WARRANTY; WITHOUT EVEN THE IMPLIED WARRANTY OF
# MERCHANTABILITY OR FITNESS FOR A PARTICULAR PURPOSE. SEE THE GNU
# GENERAL PUBLIC LICENSE FOR MORE DETAILS.
#
# YOU SHOULD HAVE RECEIVED A COPY OF THE GNU GENERAL PUBLIC LICENSE
# ALONG WITH THIS PROGRAM; IF NOT, WRITE TO EDF R&D CODE_ASTER,
#    1 AVENUE DU GENERAL DE GAULLE, 92141 CLAMART CEDEX, FRANCE.
# ======================================================================
#________________________________________________________________
#
#  - MODELISATION CONTACT NOEUDS-MAILLES SANS FROTTEMENT
#  - ELEMENTS VOLUMIQUES : PENTA6
#________________________________________________________________
#
#


DEBUT(CODE=_F(NOM='SSNV104I',NIV_PUB_WEB='INTERNET'),DEBUG=_F(SDVERI='OUI'))

PRE_GIBI();

SSNV104I=LIRE_MAILLAGE();

SSNV104I=DEFI_GROUP(reuse =SSNV104I,
                    MAILLAGE=SSNV104I,
                    CREA_GROUP_NO=(_F(OPTION='PLAN',
                                      NOM='LIM1',
                                      POINT=(0.0,0.0,0.0),
                                      VECT_NORMALE=(1.0,0.0,0.0),
                                      PRECISION=1.E-2,),
                                   _F(OPTION='PLAN',
                                      NOM='LIM2',
                                      POINT=(0.0,0.0,0.0),
                                      VECT_NORMALE=(0.0,0.0,1.0),
                                      PRECISION=1.E-2,),
                                   _F(OPTION='PLAN',
                                      NOM='FACEINF',
                                      POINT=(0.0,0.0,0.0),
                                      VECT_NORMALE=(0.0,1.0,0.0),
                                      PRECISION=1.E-2,),
                                   _F(OPTION='PLAN',
                                      NOM='FACESUP',
                                      POINT=(0.0,100.0,0.0),
                                      VECT_NORMALE=(0.0,-1.0,0.0),
                                      PRECISION=1.E-2,),
                                   _F(OPTION='ENV_SPHERE',
                                      NOM='H',
                                      POINT=(4.0328999999999997,50.162909999999997,0.0),
                                      RAYON=1.E-2,
                                      PRECISION=1.E-2,),
                                   _F(OPTION='ENV_SPHERE',
                                      NOM='HP',
                                      POINT=(0.0,50.162909999999997,4.0328999999999997),
                                      RAYON=1.E-2,
                                      PRECISION=1.E-2,),
                                   _F(OPTION='ENV_SPHERE',
                                      NOM='I',
                                      POINT=(7.9100999999999999,50.629660000000001,0.0),
                                      RAYON=1.E-2,
                                      PRECISION=1.E-2,),
                                   _F(OPTION='ENV_SPHERE',
                                      NOM='IP',
                                      POINT=(0.0,50.629660000000001,7.9100999999999999),
                                      RAYON=1.E-2,
                                      PRECISION=1.E-2,),),);
#_____________________________________________________________________
#
#                    DEFINITION DU MODELE
#_____________________________________________________________________
#
#


MO=AFFE_MODELE(MAILLAGE=SSNV104I,
               AFFE=_F(TOUT='OUI',
                       PHENOMENE='MECANIQUE',
                       MODELISATION='3D',),);

SSNV104I=MODI_MAILLAGE(reuse =SSNV104I,
                       MAILLAGE=SSNV104I,
                       ORIE_PEAU_3D=_F(GROUP_MA='SESC',),
                      );

SSNV104I=MODI_MAILLAGE(reuse =SSNV104I,
                       MAILLAGE=SSNV104I,
                       ORIE_PEAU_3D=_F(GROUP_MA='SMAI',),
                      );
#_____________________________________________________________________
#
#                    DEFINITION DES MATERIAUX
#_____________________________________________________________________
#
#


MAT=DEFI_MATERIAU(ELAS=_F(E=2.E4,
                          NU=0.29999999999999999,
                          ALPHA=1.E-2,),);

CHMAT=AFFE_MATERIAU(MAILLAGE=SSNV104I,
                    AFFE=_F(TOUT='OUI',
                            MATER=MAT,),);
#_____________________________________________________________________
#
#                    AFFECTATION DES CONDITIONS AUX LIMITES
#                       ET DES DEPLACEMENTS IMPOSES
#_____________________________________________________________________
#
#


CHA1=AFFE_CHAR_MECA(MODELE=MO,
                    DDL_IMPO=(_F(GROUP_NO='FACESUP',
                                 DY=-2.0,),
                              _F(GROUP_NO='FACEINF',
                                 DY=2.0,),
                              _F(GROUP_NO='LIM1',
                                 DX=0.0,),
                              _F(GROUP_NO='LIM2',
                                 DZ=0.0,),),);

CHA2=DEFI_CONTACT(MODELE=MO,
                  FORMULATION = 'DISCRETE',
                    ZONE=_F(GROUP_MA_MAIT='SMAI',
                               GROUP_MA_ESCL='SESC',
                               TOLE_PROJ_EXT = 0.01,
                               ),);
#_____________________________________________________________________
#
#                    DEFINITIONS DES FONCTIONS TEMPORELLES
#_____________________________________________________________________
#
#


L_INST=DEFI_LIST_REEL(DEBUT=0.0,
                      INTERVALLE=_F(JUSQU_A=1.0,
                                    NOMBRE=1,),);

RAMPE=DEFI_FONCTION(NOM_PARA='INST',
                    VALE=(0.0,0.0,1.0,1.0),
                    PROL_DROITE='LINEAIRE',
                    PROL_GAUCHE='LINEAIRE',);
#_____________________________________________________________________
#
#                          RESOLUTION
#_____________________________________________________________________
#


RESU=STAT_NON_LINE(SOLVEUR=_F(SYME='OUI',),
                   MODELE=MO,
                   CHAM_MATER=CHMAT,
                   EXCIT=(_F(CHARGE=CHA1,
                             FONC_MULT=RAMPE,),),
                   CONTACT  = CHA2,          
                   COMP_ELAS=_F(RELATION='ELAS',),
                   INCREMENT=_F(LIST_INST=L_INST,),
                   NEWTON=_F(MATRICE='ELASTIQUE',
                             REAC_INCR=0,),
                            );

RESU=CALC_ELEM(reuse =RESU,
               OPTION=('SIEF_ELNO_ELGA','VARI_ELNO_ELGA'),
               RESULTAT=RESU,);
#
#


SIELGA=CREA_CHAMP(TYPE_CHAM='ELGA_SIEF_R',
                  OPERATION='EXTR',
                  RESULTAT=RESU,
                  NOM_CHAM='SIEF_ELGA',
                  INST=1.,);
#
#


SIELNO=CREA_CHAMP(TYPE_CHAM='ELNO_SIEF_R',
                  OPERATION='EXTR',
                  RESULTAT=RESU,
                  NOM_CHAM='SIEF_ELNO_ELGA',
                  INST=1.,);
#_____________________________________________________________________
#
# TEST DE LA CONFORMITE AVEC LA SOLUTION DE REFERENCE ANALYTIQUE
#_____________________________________________________________________
#


TEST_RESU(CHAM_ELEM=_F(CHAM_GD=SIELNO,
                       MAILLE='M5884',
                       GROUP_NO='G1',
                       NOM_CMP='SIYY',
                       VALE=-2798.3000000000002,
                       CRITERE='RELATIF',
                       PRECISION=0.12,
                       REFERENCE='ANALYTIQUE',),);
#_____________________________________________________________________
#
# TEST DE LA CONFORMITE PAR RAPPORT AUX RESULTATS ASTER
# MODELISATION B
#_____________________________________________________________________
#


TEST_RESU(CHAM_ELEM=(_F(CHAM_GD=SIELNO,
                        MAILLE='M5884',
                        GROUP_NO='G1',
                        NOM_CMP='SIYY',
                        VALE=-2965.3000000000002,
                        CRITERE='RELATIF',
                        PRECISION=0.09,
                        REFERENCE='AUTRE_ASTER',),
                     _F(CHAM_GD=SIELNO,
                        MAILLE='M5896',
                        GROUP_NO='G1',
                        NOM_CMP='SIYY',
                        VALE=-2965.3000000000002,
                        CRITERE='RELATIF',
                        PRECISION=0.06,
                        REFERENCE='AUTRE_ASTER',),
                     _F(CHAM_GD=SIELNO,
                        MAILLE='M5908',
                        GROUP_NO='G1',
                        NOM_CMP='SIYY',
                        VALE=-2965.3000000000002,
                        CRITERE='RELATIF',
                        PRECISION=0.06,
                        REFERENCE='AUTRE_ASTER',),
                     _F(CHAM_GD=SIELNO,
                        MAILLE='M5920',
                        GROUP_NO='G1',
                        NOM_CMP='SIYY',
                        VALE=-2965.3000000000002,
                        CRITERE='RELATIF',
                        PRECISION=0.06,
                        REFERENCE='AUTRE_ASTER',),
                     _F(CHAM_GD=SIELNO,
                        MAILLE='M5932',
                        GROUP_NO='G1',
                        NOM_CMP='SIYY',
                        VALE=-2965.3000000000002,
                        CRITERE='RELATIF',
                        PRECISION=0.06,
                        REFERENCE='AUTRE_ASTER',),
                     _F(CHAM_GD=SIELNO,
                        MAILLE='M5944',
                        GROUP_NO='G1',
                        NOM_CMP='SIYY',
                        VALE=-2965.3000000000002,
                        CRITERE='RELATIF',
                        PRECISION=0.06,
                        REFERENCE='AUTRE_ASTER',),
                     _F(CHAM_GD=SIELNO,
                        MAILLE='M5956',
                        GROUP_NO='G1',
                        NOM_CMP='SIYY',
                        VALE=-2965.3000000000002,
                        CRITERE='RELATIF',
                        PRECISION=0.06,
                        REFERENCE='AUTRE_ASTER',),
                     _F(CHAM_GD=SIELNO,
                        MAILLE='M5968',
                        GROUP_NO='G1',
                        NOM_CMP='SIYY',
                        VALE=-2965.3000000000002,
                        CRITERE='RELATIF',
                        PRECISION=0.06,
                        REFERENCE='AUTRE_ASTER',),),
          RESU=(_F(RESULTAT=RESU,
                   INST=1.,
                   NOM_CHAM='DEPL',
                   NOM_CMP='DX',
                   GROUP_NO='G1',
                   VALE=-3.9399999999999998E-19,
                   CRITERE='ABSOLU',
                   PRECISION=1.E-10,
                   REFERENCE='AUTRE_ASTER',),
                _F(RESULTAT=RESU,
                   INST=1.,
                   NOM_CHAM='DEPL',
                   NOM_CMP='DX',
                   GROUP_NO='H',
                   VALE=-0.11118,
                   CRITERE='RELATIF',
                   PRECISION=0.072,
                   REFERENCE='AUTRE_ASTER',),
                _F(RESULTAT=RESU,
                   INST=1.,
                   NOM_CHAM='DEPL',
                   NOM_CMP='DZ',
                   GROUP_NO='HP',
                   VALE=-0.11118,
                   CRITERE='RELATIF',
                   PRECISION=0.072,
                   REFERENCE='AUTRE_ASTER',),
                _F(RESULTAT=RESU,
                   INST=1.,
                   NOM_CHAM='DEPL',
                   NOM_CMP='DY',
                   GROUP_NO='H',
                   VALE=-0.16299,
                   CRITERE='RELATIF',
                   PRECISION=0.04,
                   REFERENCE='AUTRE_ASTER',),
                _F(RESULTAT=RESU,
                   INST=1.,
                   NOM_CHAM='DEPL',
                   NOM_CMP='DY',
                   GROUP_NO='HP',
                   VALE=-0.16299,
                   CRITERE='RELATIF',
                   PRECISION=0.04,
                   REFERENCE='AUTRE_ASTER',),
                _F(RESULTAT=RESU,
                   INST=1.,
                   NOM_CHAM='DEPL',
                   NOM_CMP='DX',
                   GROUP_NO='I',
                   VALE=-0.16844000000000001,
                   CRITERE='RELATIF',
                   PRECISION=0.11,
                   REFERENCE='AUTRE_ASTER',),
                _F(RESULTAT=RESU,
                   INST=1.,
                   NOM_CHAM='DEPL',
                   NOM_CMP='DZ',
                   GROUP_NO='IP',
                   VALE=-0.16844000000000001,
                   CRITERE='RELATIF',
                   PRECISION=0.11,
                   REFERENCE='AUTRE_ASTER',),
                _F(RESULTAT=RESU,
                   INST=1.,
                   NOM_CHAM='DEPL',
                   NOM_CMP='DY',
                   GROUP_NO='I',
                   VALE=-0.62905,
                   CRITERE='RELATIF',
                   PRECISION=0.005,
                   REFERENCE='AUTRE_ASTER',),
                _F(RESULTAT=RESU,
                   INST=1.,
                   NOM_CHAM='DEPL',
                   NOM_CMP='DY',
                   GROUP_NO='IP',
                   VALE=-0.62905,
                   CRITERE='RELATIF',
                   PRECISION=0.0035,
                   REFERENCE='AUTRE_ASTER',),),);


FIN();
#
