# TITRE CONTACT AVEC FROTTEMENT D UNE PLAQUE SUR UN PLAN RIGIDE
# ======================================================================
# COPYRIGHT (C) 1991 - 2012  EDF R&D                  WWW.CODE-ASTER.ORG
# THIS PROGRAM IS FREE SOFTWARE; YOU CAN REDISTRIBUTE IT AND/OR MODIFY
# IT UNDER THE TERMS OF THE GNU GENERAL PUBLIC LICENSE AS PUBLISHED BY
# THE FREE SOFTWARE FOUNDATION; EITHER VERSION 2 OF THE LICENSE, OR
# (AT YOUR OPTION) ANY LATER VERSION.
#
# THIS PROGRAM IS DISTRIBUTED IN THE HOPE THAT IT WILL BE USEFUL, BUT
# WITHOUT ANY WARRANTY; WITHOUT EVEN THE IMPLIED WARRANTY OF
# MERCHANTABILITY OR FITNESS FOR A PARTICULAR PURPOSE. SEE THE GNU
# GENERAL PUBLIC LICENSE FOR MORE DETAILS.
#
# YOU SHOULD HAVE RECEIVED A COPY OF THE GNU GENERAL PUBLIC LICENSE
# ALONG WITH THIS PROGRAM; IF NOT, WRITE TO EDF R&D CODE_ASTER,
#    1 AVENUE DU GENERAL DE GAULLE, 92141 CLAMART CEDEX, FRANCE.
# ======================================================================
#       CAS_TEST SSNV128: 2D, ELEMENTS Q8, METHODE CONTINUE

DEBUT(CODE=_F(NOM = 'SSNV128P',NIV_PUB_WEB='INTERNET'),
IGNORE_ALARM=('CALCULEL2_63'),DEBUG=_F(SDVERI='OUI'))

# <CALCULEL2_63> : DANS UN MODELE, IL EXISTE DES ELEMENTS DE TYPE "BORD" QUI N'ONT PAS DE VOISIN AVEC RIGIDITE
#  LE MODELE PROVOQUANT CES ALARMES CONTIENT UNE SURFACE RIGIDE POUR LE CONTACT

#......................................................
#  CALCUL TEST ELEMENTS FINIS DE CONTACT 2D QUAD8
#  PLAQUE AVEC CONTACT ET FROTTEMENT SUR UN PLAN RIGIDE
#......................................................

MA=LIRE_MAILLAGE(FORMAT='MED',VERI_MAIL=_F(VERIF='OUI'));

MA=DEFI_GROUP(reuse =MA,
              MAILLAGE=MA,
              CREA_GROUP_NO=(_F(GROUP_MA='LCONTA',
                                OPTION='NOEUD_ORDO',
                                NOM='RELEVE',
                                GROUP_NO_ORIG='PPA',
                                GROUP_NO_EXTR='PPS')));

MO=AFFE_MODELE(MAILLAGE=MA,
               AFFE=_F(TOUT = 'OUI',
                       PHENOMENE = 'MECANIQUE',
                       MODELISATION = 'D_PLAN'));

MA=MODI_MAILLAGE(reuse=MA,
                 MAILLAGE=MA,
                 ORIE_PEAU_2D=(_F(GROUP_MA = 'LPRESV'),
                               _F(GROUP_MA = 'LPRESH')));

MATPLA=DEFI_MATERIAU(ELAS=_F(E = 1.3E11,
                             NU = 0.2));

CHMAT=AFFE_MATERIAU(MAILLAGE=MA,
                    AFFE=_F(TOUT = 'OUI',
                             MATER = MATPLA));

CHA1=AFFE_CHAR_MECA(MODELE=MO,
                    DDL_IMPO=(_F(GROUP_MA = 'LBATI',  DX = 0.0, DY = 0.0),
                              _F(GROUP_NO = 'PPS',    DX = 0.0, DY = 0.0),
                              _F(GROUP_MA = 'LBLOCX', DX = 0.0)),
                    PRES_REP=(_F(GROUP_MA = 'LPRESV', PRES = 5.E07),
                              _F(GROUP_MA = 'LPRESH', PRES = 15.E07)));

CHA2=DEFI_CONTACT(MODELE=MO,
                  FORMULATION='CONTINUE',
                  FROTTEMENT='COULOMB',
                    ALGO_RESO_CONT = 'NEWTON',
                    ALGO_RESO_GEOM = 'NEWTON',
                    ALGO_RESO_FROT = 'NEWTON',
                    ADAPT_COEF     = 'OUI',
                  RESI_FROT=1e-10,
                  ZONE=_F(SANS_GROUP_NO='PPS',
                          GROUP_MA_MAIT='LBATI',
                          GROUP_MA_ESCL='LCONTA',
                          CONTACT_INIT='INTERPENETRE',
                          COULOMB=1,
                          SEUIL_INIT=1e-1,
                          ALGO_FROT ='STANDARD',
                          COEF_CONT =1.e2,
                          COEF_FROT =1.e6,
                           ),
                              );



RAMPE=DEFI_FONCTION(NOM_PARA='INST',
                    PROL_GAUCHE='LINEAIRE',
                    PROL_DROITE='LINEAIRE',
                    VALE=(0.0,0.0,1.0,1.0));

LINST=DEFI_LIST_REEL(DEBUT=0.,
                      INTERVALLE=_F(JUSQU_A = 1.0, NOMBRE = 1));

L_INST=DEFI_LIST_INST(DEFI_LIST=_F(METHODE='MANUEL',
                                  LIST_INST=LINST,),
                     ECHEC=_F(EVENEMENT='ERREUR',
                              ACTION='DECOUPE',
                              SUBD_METHODE = 'MANUEL',
                              SUBD_PAS=5,
                              SUBD_NIVEAU=5,),);

#-----------------------------------------------------------

U2M=STAT_NON_LINE(MODELE     = MO,
                  CHAM_MATER = CHMAT,
                  EXCIT=_F(CHARGE=CHA1,
                           FONC_MULT=RAMPE,),
                  CONTACT=CHA2,
                  COMPORTEMENT  = _F(RELATION = 'ELAS'),
                  INCREMENT  = _F(LIST_INST = L_INST),
                  NEWTON=_F(REAC_ITER=1,),
                  CONVERGENCE= _F(ARRET = 'OUI',
                                 ITER_GLOB_MAXI = 500,
                                 RESI_GLOB_RELA = 1.0E-4),
#                  INFO=2,
               );

TEST_RESU(RESU=(_F(GROUP_NO='PPA',
                   INST=1.0,
                   REFERENCE='AUTRE_ASTER',
                   RESULTAT=U2M,
                   NOM_CHAM='DEPL',
                   NOM_CMP='DX',
                   VALE_CALC= 2.85984956E-05,
                   VALE_REFE=2.8600000000000001E-05,
                   PRECISION=0.050000000000000003,
                   ),
                _F(GROUP_NO='PPB',
                   INST=1.0,
                   REFERENCE='AUTRE_ASTER',
                   RESULTAT=U2M,
                   NOM_CHAM='DEPL',
                   NOM_CMP='DX',
                   VALE_CALC= 2.72076359E-05,
                   VALE_REFE=2.72E-05,
                   PRECISION=0.050000000000000003,
                   ),
                _F(GROUP_NO='PPC',
                   INST=1.0,
                   REFERENCE='AUTRE_ASTER',
                   RESULTAT=U2M,
                   NOM_CHAM='DEPL',
                   NOM_CMP='DX',
                   VALE_CALC= 2.28268638E-05,
                   VALE_REFE=2.2799999999999999E-05,
                   PRECISION=0.050000000000000003,
                   ),
                _F(GROUP_NO='PPD',
                   INST=1.0,
                   REFERENCE='AUTRE_ASTER',
                   RESULTAT=U2M,
                   NOM_CHAM='DEPL',
                   NOM_CMP='DX',
                   VALE_CALC= 1.97916483E-05,
                   VALE_REFE=1.98E-05,
                   PRECISION=0.050000000000000003,
                   ),
                _F(GROUP_NO='PPE',
                   INST=1.0,
                   REFERENCE='AUTRE_ASTER',
                   RESULTAT=U2M,
                   NOM_CHAM='DEPL',
                   NOM_CMP='DX',
                   VALE_CALC= 1.54063959E-05,
                   VALE_REFE=1.5E-05,
                   PRECISION=0.050000000000000003,
                   ),
                ),
          )

# VERIF PROJECTION  (POINT LE PLUS A DROITE)
TEST_RESU(RESU=_F(INST=1.0,
                  REFERENCE='ANALYTIQUE',
                  RESULTAT=U2M,
                  NOM_CHAM='VALE_CONT',
                  NOEUD='N321',
                  NOM_CMP='PROJ_X',
                  VALE_CALC=0.040000000,
                  VALE_REFE=0.040000000000000001,
                  PRECISION=1.E-08,),
          )

TEST_RESU(RESU=_F(INST=1.0,
                  REFERENCE='ANALYTIQUE',
                  RESULTAT=U2M,
                  NOM_CHAM='VALE_CONT',
                  NOEUD='N321',
                  NOM_CMP='PROJ_Y',
                  VALE_CALC=-6.68940220E-46,
                  VALE_REFE=0.0,
                  CRITERE='ABSOLU',
                  PRECISION=1.E-08,),
          )

FIN();
#
