# MODIF  DATE 04/04/2011   AUTEUR GENIAUT S.GENIAUT 
# TITRE FISSURE DEBOUCHANTE DANS UNE PLAQUE 3D DE LARGEUR FINIE AVEC X-FEM
# ssnv185e.para = tps_job 70 mem_job 256Mo mem_aster 50 ncpus 1 liste_test R
#            CONFIGURATION MANAGEMENT OF EDF VERSION
# ======================================================================
# COPYRIGHT (C) 1991 - 2011  EDF R&D                  WWW.CODE-ASTER.ORG
# THIS PROGRAM IS FREE SOFTWARE; YOU CAN REDISTRIBUTE IT AND/OR MODIFY
# IT UNDER THE TERMS OF THE GNU GENERAL PUBLIC LICENSE AS PUBLISHED BY
# THE FREE SOFTWARE FOUNDATION; EITHER VERSION 2 OF THE LICENSE, OR
# (AT YOUR OPTION) ANY LATER VERSION.
#
# THIS PROGRAM IS DISTRIBUTED IN THE HOPE THAT IT WILL BE USEFUL, BUT
# WITHOUT ANY WARRANTY; WITHOUT EVEN THE IMPLIED WARRANTY OF
# MERCHANTABILITY OR FITNESS FOR A PARTICULAR PURPOSE. SEE THE GNU
# GENERAL PUBLIC LICENSE FOR MORE DETAILS.
#
# YOU SHOULD HAVE RECEIVED A COPY OF THE GNU GENERAL PUBLIC LICENSE
# ALONG WITH THIS PROGRAM; IF NOT, WRITE TO EDF R&D CODE_ASTER,
#    1 AVENUE DU GENERAL DE GAULLE, 92141 CLAMART CEDEX, FRANCE.
# ======================================================================

DEBUT(CODE=_F(NOM='SSNV185E',NIV_PUB_WEB='INTERNET',VISU_EFICAS='NON'),DEBUG=_F(SDVERI='OUI'))

# MODELISATION E : X-FEM FISSURE NON-COINCIDENTE PUR - TRACTION (CHAMP ASYMPTOTIQUE DIRICHLET)

#----------------------------------------------
#             MAILLAGE : hexa_3_11_31.mgib
#----------------------------------------------

PRE_GIBI();

MAILLAG1=LIRE_MAILLAGE(INFO=1,);

MAILLAG1=DEFI_GROUP(reuse =MAILLAG1,
                    MAILLAGE=MAILLAG1,
                    CREA_GROUP_NO=_F(GROUP_MA='VOL',),);

MAILLAG1=DEFI_GROUP(reuse =MAILLAG1,
                    MAILLAGE=MAILLAG1,
                    CREA_GROUP_NO=_F(GROUP_MA='SURFSUP',),
                    );


MAILLAG1=DEFI_GROUP(reuse =MAILLAG1,
                 MAILLAGE=MAILLAG1,
                 CREA_GROUP_NO=(_F(NOM='NXFEM',NOEUD=('N501','N502','N503','N504','N505','N506','N1069',
                                                      'N534','N535','N536','N537','N538','N539','N1072',

                                                      'N512','N513','N514','N515','N516','N517','N1070',
                                                      'N545','N546','N547','N548','N549','N550','N1073',

                                                      'N523','N524','N525','N526','N527','N528','N1071',
                                                      'N556','N557','N558','N559','N560','N561','N1074',

                                                      'N1286','N1287','N1288','N1289','N1290','N1291','N1292',
                                                      'N1297','N1298','N1299','N1300','N1301','N1302','N1303',),),
                                _F(NOM='NCLA',DIFFE=('VOL','NXFEM',),),
                                ),
                 );


#----------------------------------------------
#                   MODELE ET FISSURE
#----------------------------------------------

MODELEIN=AFFE_MODELE(MAILLAGE=MAILLAG1,
                     AFFE=(_F(GROUP_MA=('VOL',),
                              PHENOMENE='MECANIQUE',
                              MODELISATION='3D',),
                           _F(GROUP_MA=('SURFINF','SURFSUP',),
                              PHENOMENE='MECANIQUE',
                              MODELISATION='3D',),),);

MAILLAG1=MODI_MAILLAGE(reuse =MAILLAG1,
                       MAILLAGE=MAILLAG1,
                       ORIE_PEAU_3D=_F(GROUP_MA=('SURFSUP','SURFINF',),),
                       );

LN=FORMULE(NOM_PARA=('X','Y','Z'),VALE='Z-15.');
LT=FORMULE(NOM_PARA=('X','Y','Z'),VALE='-Y+5.');

FISS=DEFI_FISS_XFEM(MODELE=MODELEIN,
                    DEFI_FISS=_F(FONC_LT=LT,FONC_LN=LN,),
                    ORIE_FOND=_F(PFON_INI= (0. ,5. ,15. ),
                                 VECT_ORIE=(0. ,0. ,1. ),
                                 POINT_ORIG=(0. ,20. ,15. ),),
                    );

MODELEK=MODI_MODELE_XFEM(MODELE_IN=MODELEIN,FISSURE=FISS,INFO=1,);

CHXFEM=AFFE_CHAR_MECA(MODELE=MODELEK,LIAISON_XFEM='OUI',INFO=1,);

#----------------------------------------------
#                   MATERIAU
#----------------------------------------------

E=100.0E6
nu=0.
rho=7800.
ACIER=DEFI_MATERIAU(ELAS=_F(E=E,NU=nu,RHO=rho,),);

CHAMPMA1=AFFE_MATERIAU(MAILLAGE=MAILLAG1,
                       MODELE=MODELEK,
                       AFFE=_F(TOUT = 'OUI',
                                MATER=ACIER,
                                ),
                             );

#--------------------------------------------------------
#                   CHARGEMENT : CHAMP AUXILIAIRE MODE I
#--------------------------------------------------------

R = FORMULE(NOM_PARA=('X','Y','Z'),VALE='sqrt((Y-5.)**2+(Z-15.)**2)');
T = FORMULE(NOM_PARA=('X','Y','Z'),VALE='atan2(Z-15.,-Y+5.)');

coef=(1+nu)/(E*sqrt(2.*pi))

OUAUX1 = FORMULE(NOM_PARA=('X','Y','Z'),VALE='-1.*coef*sqrt(R(X,Y,Z))*cos(T(X,Y,Z)/2.)*(3.-4.*nu-cos(T(X,Y,Z)))');
UAUX2 = FORMULE(NOM_PARA=('X','Y','Z'),VALE=' coef*sqrt(R(X,Y,Z))*sin(T(X,Y,Z)/2.)*(3.-4.*nu-cos(T(X,Y,Z)))');
UAUX3 = FORMULE(NOM_PARA=('X','Y','Z'),VALE='0.');

CHF=AFFE_CHAR_MECA_F(MODELE=MODELEK,DDL_IMPO=_F(GROUP_NO=('NCLA','NXFEM'),DX=UAUX3,DY=OUAUX1,DZ=UAUX2,),);


#----------------------------------------------
#                   RESOLUTION
#----------------------------------------------

L_INS1=DEFI_LIST_REEL(DEBUT=0.0,INTERVALLE=_F(JUSQU_A=3.0,NOMBRE=3,),);

UTOT1=STAT_NON_LINE(MODELE=MODELEK,
                   CHAM_MATER=CHAMPMA1,
                   EXCIT=(_F(CHARGE=CHXFEM,),
                          _F(CHARGE=CHF,),
                          ),
                   COMP_ELAS=_F(RELATION='ELAS',
                                GROUP_MA='VOL',),
                   INCREMENT=_F(LIST_INST=L_INS1,
                                INST_FIN=1.0,),
                   SOLVEUR=_F(METHODE='MUMPS',PCENT_PIVOT=10,
                              ),
                   NEWTON=_F(REAC_ITER=1,),
                   ARCHIVAGE=_F(CHAM_EXCLU='VARI_ELGA',),
                   INFO=1,);

#------------------------------------------------------------------------
# POST-TRAITEMENT : CALCUL DES SIFS PAR LA METHODE ENERGETIQUE AVEC X-FEM
#------------------------------------------------------------------------

# TEST AVEC PLUSIEURS COURONNES
RI=[2. , 0.666 , 1. , 1. , 1. , 2.1]
RS=[4. , 1.666 , 2. , 3. , 4. , 3.9]

nbc=len(RI)
SIF = [None]*nbc

for i in range(0,nbc) :

   SIF[i]=CALC_G(RESULTAT=UTOT1,
                 OPTION='CALC_K_G',
                 NUME_ORDRE=1,
                 THETA=_F(FISSURE=FISS,
                          R_INF=RI[i],
                          R_SUP=RS[i],),
                 LISSAGE=_F(LISSAGE_THETA='LAGRANGE',
                            LISSAGE_G='LAGRANGE',),
                 INFO=2,);

   IMPR_TABLE(TABLE=SIF[i],);

# SOLUTION ANALYTIQUE
K1REF=1.

for i in range(0,nbc) :
   TEST_TABLE(TABLE=SIF[i],
              NOM_PARA='K1',
              TYPE_TEST='MAX',
              VALE=K1REF,
              CRITERE='RELATIF',
              PRECISION=0.03,
              REFERENCE='ANALYTIQUE',);

   TEST_TABLE(TABLE=SIF[i],
              NOM_PARA='K1',
              TYPE_TEST='MIN',
              VALE=K1REF,
              CRITERE='RELATIF',
              PRECISION=0.03,
              REFERENCE='ANALYTIQUE',);

# -------------------------------------------------------------   
#            POST-TRAITEMENT POUR LA VISUALISATION X-FEM   
# -------------------------------------------------------------   

MA_XFEM=POST_MAIL_XFEM(
                       MODELE        = MODELEK,
                       INFO          = 2)

MOD_VISU=AFFE_MODELE(MAILLAGE=MA_XFEM,
                     AFFE=_F(TOUT='OUI',
                              PHENOMENE='MECANIQUE',
                              MODELISATION='3D',),) 

RES_XFEM=POST_CHAM_XFEM(MODELE_VISU   = MOD_VISU,
                        RESULTAT      = UTOT1,
                        
                        INFO          = 2)

FIN();
