# TITRE ROTATION ET TRACTION 2D GRANDES DEFORMATIONS (LOI LINEAIRE)
# ======================================================================
# COPYRIGHT (C) 1991 - 2012  EDF R&D                  WWW.CODE-ASTER.ORG
# THIS PROGRAM IS FREE SOFTWARE; YOU CAN REDISTRIBUTE IT AND/OR MODIFY
# IT UNDER THE TERMS OF THE GNU GENERAL PUBLIC LICENSE AS PUBLISHED BY
# THE FREE SOFTWARE FOUNDATION; EITHER VERSION 2 OF THE LICENSE, OR
# (AT YOUR OPTION) ANY LATER VERSION.
#
# THIS PROGRAM IS DISTRIBUTED IN THE HOPE THAT IT WILL BE USEFUL, BUT
# WITHOUT ANY WARRANTY; WITHOUT EVEN THE IMPLIED WARRANTY OF
# MERCHANTABILITY OR FITNESS FOR A PARTICULAR PURPOSE. SEE THE GNU
# GENERAL PUBLIC LICENSE FOR MORE DETAILS.
#
# YOU SHOULD HAVE RECEIVED A COPY OF THE GNU GENERAL PUBLIC LICENSE
# ALONG WITH THIS PROGRAM; IF NOT, WRITE TO EDF R&D CODE_ASTER,
#    1 AVENUE DU GENERAL DE GAULLE, 92141 CLAMART CEDEX, FRANCE.
# ======================================================================


DEBUT(CODE=_F(NOM='SSNV121B',NIV_PUB_WEB='INTERNET'),DEBUG=_F(SDVERI='OUI'))

MA=LIRE_MAILLAGE()

MO=AFFE_MODELE(
               MAILLAGE=MA,
                  VERIF='MAILLE',
             AFFE=_F(
               TOUT = 'OUI',
               PHENOMENE = 'MECANIQUE',
               MODELISATION = 'D_PLAN')
             )

ACIER=DEFI_MATERIAU(
                   ELAS=_F(
               E = 200000.,
               NU = 0.3)
             )

CHP_MATE=AFFE_MATERIAU(
               MAILLAGE=MA,
                   AFFE=_F(
               TOUT = 'OUI',
               MATER = ACIER)
             )

L_INST=DEFI_LIST_REEL(
              DEBUT=0.0,INTERVALLE=(

              _F( JUSQU_A = 0.1,  NOMBRE = 10),
              _F( JUSQU_A = 1.,   NOMBRE = 9),
              _F( JUSQU_A = 2.,   NOMBRE = 5),
              _F( JUSQU_A = 2.99, NOMBRE = 15),
              _F( JUSQU_A = 3.,   NOMBRE = 10))
             )

F_CHAR=DEFI_FONCTION(
                NOM_PARA='INST',
              PROL_DROITE='CONSTANT',
                    VALE=(
               0.,  0.,
               1.,  0.,
               2.,  1.,
               3.,  0.,
               )
             )

F_ROTA=DEFI_FONCTION(
                NOM_PARA='INST',
              PROL_DROITE='CONSTANT',
                    VALE=(
               0.,  0.,
               1.,  1.,
               2.,  1.,
               3.,  0.,
               )
             )

CHR_ROTA=AFFE_CHAR_MECA(
               MODELE=MO,DDL_IMPO=(

              _F( NOEUD = 'NO3',  DX = 0.,     DY = 0.),
              _F( NOEUD = 'NO1',  DX = -1000., DY = -1000.),
              _F( NOEUD = 'NO2',  DX = -2000.),
              _F( NOEUD = 'NO4',  DX = -1000.))
             )

CHR_FORC=AFFE_CHAR_MECA(
                     MODELE=MO,
                FORCE_CONTOUR=_F( MAILLE = 'MA2',  FY = 31096.154)
             )

V=STAT_NON_LINE(
                            MODELE=MO,
                        CHAM_MATER=CHP_MATE,EXCIT=(
                             _F(
                CHARGE = CHR_ROTA,
                FONC_MULT = F_ROTA), _F(
                CHARGE = CHR_FORC,
                FONC_MULT = F_CHAR)),
                         COMPORTEMENT=_F(
                RELATION = 'ELAS',
                DEFORMATION = 'GROT_GDEP'),
                         INCREMENT=_F(
                LIST_INST = L_INST),
                            NEWTON=_F(
                MATRICE = 'TANGENTE',
                REAC_ITER = 1),
                       CONVERGENCE=_F(
                RESI_GLOB_MAXI = 1.E-3,
                ITER_GLOB_MAXI = 50)
              )

V=CALC_CHAMP( reuse=V,
                RESULTAT=V,
                  FORCE='FORC_NODA',
             )

V=CALC_CHAMP( reuse=V,
                RESULTAT=V,
                  DEFORMATION=('EPSG_ELNO')
           )

TEST_RESU(RESU=(_F(INST=2.0,
                   RESULTAT=V,
                   NOM_CHAM='DEPL',
                   NOEUD='NO2',
                   NOM_CMP='DY',
                   VALE_CALC=100.00000043461,
                   VALE_REFE=100.0,
                   REFERENCE = 'ANALYTIQUE',
                   PRECISION=1.E-3,
                   ),
                _F(INST=2.0,
                   RESULTAT=V,
                   NOM_CHAM='DEPL',
                   NOEUD='NO4',
                   NOM_CMP='DY',
                   VALE_CALC=1100.0000004346,
                   VALE_REFE=1100.0,
                   REFERENCE = 'ANALYTIQUE',
                   PRECISION=1.E-3,
                   ),
                _F(INST=2.0,
                   POINT=1,
                   RESULTAT=V,
                   NOM_CHAM='SIEF_ELGA',
                   NOM_CMP='SIXX',
                   VALE_CALC=11013.986059781,
                   VALE_REFE=1.1013986000000001E4,
                   REFERENCE = 'ANALYTIQUE',
                   PRECISION=1.E-3,
                   MAILLE='MA1',),
                _F(INST=2.0,
                   POINT=1,
                   RESULTAT=V,
                   NOM_CHAM='SIEF_ELGA',
                   NOM_CMP='SIYY',
                   VALE_CALC=31096.154000022,
                   VALE_REFE=3.1096153999999999E4,
                   REFERENCE = 'ANALYTIQUE',
                   PRECISION=1.E-3,
                   MAILLE='MA1',),
                _F(INST=2.0,
                   POINT=1,
                   RESULTAT=V,
                   NOM_CHAM='SIEF_ELGA',
                   NOM_CMP='SIZZ',
                   VALE_CALC=11013.986059781,
                   VALE_REFE=1.1013986000000001E4,
                   REFERENCE = 'ANALYTIQUE',
                   PRECISION=1.E-3,
                   MAILLE='MA1',),
                _F(INST=2.0,
                   POINT=1,
                   RESULTAT=V,
                   NOM_CHAM='SIEF_ELGA',
                   NOM_CMP='SIXY',
                   VALE_CALC=3.138515103134E-12,
                   VALE_REFE=0.0,
                   REFERENCE = 'ANALYTIQUE',
                   PRECISION=1.E-3,
                   CRITERE='ABSOLU',
                   MAILLE='MA1',),
                _F(INST=3.0,
                   RESULTAT=V,
                   NOM_CHAM='DEPL',
                   NOEUD='NO2',
                   NOM_CMP='DY',
                   VALE_CALC=-2.8641434766475E-18,
                   VALE_REFE=0.0,
                   REFERENCE = 'ANALYTIQUE',
                   PRECISION=1.E-3,
                   CRITERE='ABSOLU',
                   ),
                _F(INST=3.0,
                   RESULTAT=V,
                   NOM_CHAM='DEPL',
                   NOEUD='NO4',
                   NOM_CMP='DY',
                   VALE_CALC=-2.2456428309765E-17,
                   VALE_REFE=0.0,
                   REFERENCE = 'ANALYTIQUE',
                   PRECISION=1.E-3,
                   CRITERE='ABSOLU',
                   ),
                _F(INST=3.0,
                   POINT=1,
                   RESULTAT=V,
                   NOM_CHAM='SIEF_ELGA',
                   NOM_CMP='SIXX',
                   VALE_CALC=-1.3172992692047E-22,
                   VALE_REFE=0.0,
                   REFERENCE = 'ANALYTIQUE',
                   PRECISION=1.E-3,
                   CRITERE='ABSOLU',
                   MAILLE='MA1',),
                _F(INST=3.0,
                   POINT=1,
                   RESULTAT=V,
                   NOM_CHAM='SIEF_ELGA',
                   NOM_CMP='SIXY',
                   VALE_CALC=-3.7637121977278E-23,
                   VALE_REFE=0.0,
                   REFERENCE = 'ANALYTIQUE',
                   PRECISION=1.E-3,
                   CRITERE='ABSOLU',
                   MAILLE='MA1',),
                _F(INST=3.0,
                   POINT=1,
                   RESULTAT=V,
                   NOM_CHAM='SIEF_ELGA',
                   NOM_CMP='SIYY',
                   VALE_CALC=-5.6455682965916E-23,
                   VALE_REFE=0.0,
                   REFERENCE = 'ANALYTIQUE',
                   PRECISION=1.E-3,
                   CRITERE='ABSOLU',
                   MAILLE='MA1',),
                _F(INST=3.0,
                   POINT=1,
                   RESULTAT=V,
                   NOM_CHAM='SIEF_ELGA',
                   NOM_CMP='SIZZ',
                   VALE_CALC=-5.6455682965916E-23,
                   VALE_REFE=0.0,
                   REFERENCE = 'ANALYTIQUE',
                   PRECISION=1.E-3,
                   CRITERE='ABSOLU',
                   MAILLE='MA1',),
                _F(INST=2.0,
                   RESULTAT=V,
                   NOM_CHAM='FORC_NODA',
                   NOEUD='NO4',
                   NOM_CMP='DX',
                   VALE_CALC=6.0576923352732E+06,
                   VALE_REFE=6.057700E6,
                   REFERENCE = 'ANALYTIQUE',
                   PRECISION=1.E-3,
                   ),
                _F(INST=2.0,
                   RESULTAT=V,
                   NOM_CHAM='FORC_NODA',
                   NOEUD='NO4',
                   NOM_CMP='DY',
                   VALE_CALC=1.5548077000011E+07,
                   VALE_REFE=1.5548100E7,
                   REFERENCE = 'ANALYTIQUE',
                   PRECISION=1.E-3,
                   CRITERE='RELATIF',
                   ),
                _F(INST=2.0,
                   RESULTAT=V,
                   NOM_CHAM='EPSG_ELNO',
                   NOEUD='NO4',
                   NOM_CMP='EPXX',
                   VALE_CALC=0.10500000047807,
                   VALE_REFE=0.105,
                   REFERENCE = 'ANALYTIQUE',
                   PRECISION=1.E-3,
                   MAILLE='MA1',),
                _F(INST=2.0,
                   RESULTAT=V,
                   NOM_CHAM='EPSG_ELNO',
                   NOEUD='NO4',
                   NOM_CMP='EPYY',
                   VALE_CALC=0.0E+00,
                   VALE_REFE=0.0,
                   REFERENCE = 'ANALYTIQUE',
                   PRECISION=1.E-3,
                   CRITERE='ABSOLU',
                   MAILLE='MA1',),
                _F(INST=2.0,
                   RESULTAT=V,
                   NOM_CHAM='EPSG_ELNO',
                   NOEUD='NO4',
                   NOM_CMP='EPZZ',
                   VALE_CALC=0.0E+00,
                   VALE_REFE=0.0,
                   REFERENCE = 'ANALYTIQUE',
                   PRECISION=1.E-3,
                   CRITERE='ABSOLU',
                   MAILLE='MA1',),
                _F(INST=2.0,
                   RESULTAT=V,
                   NOM_CHAM='EPSG_ELNO',
                   NOEUD='NO4',
                   NOM_CMP='EPXY',
                   VALE_CALC=-5.5511151231258E-17,
                   VALE_REFE=0.0,
                   REFERENCE = 'ANALYTIQUE',
                   PRECISION=1.E-3,
                   CRITERE='ABSOLU',
                   MAILLE='MA1',),
                ),
          )

FIN()
#
