# TITRE : ESSAI TRIAXIAL 3D AVEC LE MODELE DE HOEK-BROWN
# ======================================================================
# COPYRIGHT (C) 1991 - 2015  EDF R&D                  WWW.CODE-ASTER.ORG
# THIS PROGRAM IS FREE SOFTWARE; YOU CAN REDISTRIBUTE IT AND/OR MODIFY
# IT UNDER THE TERMS OF THE GNU GENERAL PUBLIC LICENSE AS PUBLISHED BY
# THE FREE SOFTWARE FOUNDATION; EITHER VERSION 2 OF THE LICENSE, OR
# (AT YOUR OPTION) ANY LATER VERSION.
#
# THIS PROGRAM IS DISTRIBUTED IN THE HOPE THAT IT WILL BE USEFUL, BUT
# WITHOUT ANY WARRANTY; WITHOUT EVEN THE IMPLIED WARRANTY OF
# MERCHANTABILITY OR FITNESS FOR A PARTICULAR PURPOSE. SEE THE GNU
# GENERAL PUBLIC LICENSE FOR MORE DETAILS.
#
# YOU SHOULD HAVE RECEIVED A COPY OF THE GNU GENERAL PUBLIC LICENSE
# ALONG WITH THIS PROGRAM; IF NOT, WRITE TO EDF R&D CODE_ASTER,
#    1 AVENUE DU GENERAL DE GAULLE, 92141 CLAMART CEDEX, FRANCE.
# ======================================================================
#                POUR UN CONFINEMENT DE 5 MPA
# ======================================================================
#   HOEK-BROWN MODIFIE POUR UN CONFINEMENT DE 5 MPA
# ======================================================================

DEBUT(   CODE=_F(NIV_PUB_WEB='INTERNET',
VISU_EFICAS='OUI'),DEBUG=_F(SDVERI='NON'))
# SDVERI='NON' car la verification est trop couteuse en CPU

#***********************************************************************
#    MAILLAGE + MODELE
#***********************************************************************

MAILLAGE = LIRE_MAILLAGE(FORMAT='MED', )

MODELE   = AFFE_MODELE( MAILLAGE =     MAILLAGE,
                        AFFE     = _F( TOUT         = 'OUI',
                                       PHENOMENE    = 'MECANIQUE',
                                       MODELISATION = '3D')
                      )

MAILLAGE = MODI_MAILLAGE( reuse        = MAILLAGE,
                          MAILLAGE     = MAILLAGE,
                          ORIE_PEAU_3D = _F( GROUP_MA = ('HAUT',
                                    'DEVANT',
                                    'GAUCHE',
                                    'BAS',
                                    'DERRIERE',
                                          'DROITE',),  )
                                             )

#***********************************************************************
#    LISTE DES INSTANTS DE CALCUL
#***********************************************************************

TEMPS1   = DEFI_LIST_REEL( DEBUT      = 0.,
                           INTERVALLE = _F( JUSQU_A = 2.0, NOMBRE = 1 )
                          )

TEMPS2   = DEFI_LIST_REEL( DEBUT      = 2.,
                           INTERVALLE = (_F( JUSQU_A = 15.0, NOMBRE = 520 ),
                        )
                          )

#***********************************************************************
#    CARACTERITIQUES DU MATERIAU
#***********************************************************************

MATER    = DEFI_MATERIAU(    ELAS=_F(  E  = 4500.0,
                                NU = 0.3  ,
                                ALPHA = 0.0
                                ),
                                HOEK_BROWN =
                                _F(GAMMA_RUP            =0.005,
                                   GAMMA_RES            =0.017,
                                     S_END              =225.0,
                                     S_RUP              =482.5675,
                                     M_END              =13.5,
                                     M_RUP              =83.75,
                                     BETA               =3.0,
                                     ALPHAHB            =3.3,
                                     PHI_RUP            =15.0,
                                     PHI_RES            =30.0,
                                     PHI_END            = 0.0)
                                     );

CHMAT    = AFFE_MATERIAU(  MAILLAGE = MAILLAGE,
                           AFFE     = _F(  TOUT  = 'OUI',
                                           MATER = MATER )
                        );

#***********************************************************************
#    CHARGEMENT MECANIQUE : FORCE DE COMPRESSION + DDL IMPOSES
#***********************************************************************

PR_LATE=AFFE_CHAR_MECA(    MODELE=MODELE,
                              PRES_REP=_F(   GROUP_MA = ( 'DEVANT', 'DROITE'),
                                          PRES = 1.,
                                    )
                       )


PR_V=AFFE_CHAR_MECA(    MODELE=MODELE,
                             PRES_REP=_F(   GROUP_MA = 'HAUT',    PRES = 1.,
                                    )
                        )

DEP_SYM=AFFE_CHAR_MECA(    MODELE=MODELE,FACE_IMPO=(
                              _F(  GROUP_MA = 'BAS',      DZ = 0.,   ),
                              _F(  GROUP_MA = 'DERRIERE', DX = 0.,   ),
                              _F(  GROUP_MA = 'GAUCHE',   DY = 0.,   ))
                           )

COEF1    = DEFI_FONCTION( NOM_PARA    = 'INST',
                          PROL_DROITE = 'CONSTANT',
                          VALE=( 0.0,  0.0,
                                 2.0,  5.0,)
                        )


#***********************************************************************
#    CALCUL DE LA SOLUTION DEFINISSANT L ETAT INITIAL
#***********************************************************************

U1=STAT_NON_LINE(
                  MODELE     = MODELE,
                  CHAM_MATER = CHMAT,
                    EXCIT      = ( _F( CHARGE       = PR_LATE,
                                     FONC_MULT    = COEF1),
                                     _F( CHARGE       = PR_V,
                                     FONC_MULT    = COEF1),
                                     _F( CHARGE       = DEP_SYM)),
                  COMPORTEMENT  = _F( RELATION       = 'HOEK_BROWN',
                                   RESI_INTE_RELA = 1.E-8,
                                   ITER_INTE_MAXI = 100),
                  NEWTON     = _F( MATRICE        = 'TANGENTE',
                                   REAC_ITER      = 1,),
                  CONVERGENCE= _F( RESI_GLOB_RELA = 1.E-6,
                                   ITER_GLOB_MAXI = 50),
                  INCREMENT  = _F( LIST_INST      = TEMPS1)
                )

U1=CALC_CHAMP(reuse=U1,CONTRAINTE=('SIGM_ELNO'),VARI_INTERNE=('VARI_ELNO'),RESULTAT=U1)


#***********************************************************************
#    NOUVEAU CHARGEMENT MECANIQUE : DEPLACEMENT UNIAXIALE UNITAIRE
#***********************************************************************


DEP_V=AFFE_CHAR_MECA( MODELE    = MODELE,
                      FACE_IMPO = _F( GROUP_MA = 'HAUT', DZ = 1., )
                     )

COEF2   = DEFI_FONCTION( NOM_PARA    = 'INST',
                         PROL_DROITE = 'LINEAIRE',
                         PROL_GAUCHE = 'CONSTANT',
                         VALE=( 2.0,  0.0,
                                6.0, -0.04, )
                       )


#***********************************************************************
#    EXTRACTION DES CONTRAINTES ET VARIABLES INTERNES DEFINISSANT
#    L ETAT INITIAL
#***********************************************************************


SIG_INI = CREA_CHAMP( OPERATION = 'EXTR',
                      TYPE_CHAM = 'ELGA_SIEF_R',
                      NOM_CHAM  = 'SIEF_ELGA',
        RESULTAT  = U1,
                      INST      = 2.,
                    )

VAR_INI = CREA_CHAMP( OPERATION = 'EXTR',
                      TYPE_CHAM = 'ELGA_VARI_R',
                      NOM_CHAM  = 'VARI_ELGA',
        RESULTAT  = U1,
                      INST      = 2.
                    )

#***********************************************************************
#    CALCUL DE LA SOLUTION : SIMULATION DE L ESSAI TRIAXIAL
#***********************************************************************

U2 = STAT_NON_LINE(
                    MODELE     = MODELE,
                    CHAM_MATER = CHMAT,
      EXCIT      = ( _F( CHARGE       = PR_LATE,
                         FONC_MULT    = COEF1),
                      _F( CHARGE       = DEP_SYM),
                      _F( CHARGE       = DEP_V,
                          FONC_MULT    = COEF2)),
                    COMPORTEMENT  = _F( RELATION       = 'HOEK_BROWN',
                                     RESI_INTE_RELA = 1.E-6,
                                     ITER_INTE_MAXI = 100,
                                     ITER_INTE_PAS  = -10,),
                    ETAT_INIT  = _F( SIGM           = SIG_INI,
                                     VARI           = VAR_INI),
                    INCREMENT  = _F( LIST_INST      = TEMPS2,
                                         INST_FIN=4.8),
                    NEWTON     = _F(
                                         MATRICE        = 'TANGENTE',
                                     REAC_ITER      = 1,),
                    CONVERGENCE= _F( RESI_GLOB_RELA = 1.E-6,
                                     ITER_GLOB_MAXI = 100)
                  )




U2=CALC_CHAMP(reuse=U2,CONTRAINTE=('SIGM_ELNO'),VARI_INTERNE=('VARI_ELNO'),RESULTAT=U2)


U2       = CALC_CHAMP( reuse    = U2,
                    RESULTAT = U2,
                    CONTRAINTE='SIGM_NOEU',VARI_INTERNE='VARI_NOEU'
                  )


#------------------------------------
#    TEST_RESU AU POINT D (NOEUD N8)
#------------------------------------


TEST_RESU(RESU=(_F(NUME_ORDRE=12,
                   RESULTAT=U2,
                   NOM_CHAM='SIGM_NOEU',
                   NOEUD='NO8',
                   NOM_CMP='SIXX',
                   VALE_CALC=-5.0,
                   ),
                _F(NUME_ORDRE=65,
                   RESULTAT=U2,
                   NOM_CHAM='SIGM_NOEU',
                   NOEUD='NO8',
                   NOM_CMP='SIXX',
                   VALE_CALC=-5.0,
                   ),
                _F(NUME_ORDRE=12,
                   RESULTAT=U2,
                   NOM_CHAM='SIGM_NOEU',
                   NOEUD='NO8',
                   NOM_CMP='SIYY',
                   VALE_CALC=-5.0,
                   ),
                _F(NUME_ORDRE=65,
                   RESULTAT=U2,
                   NOM_CHAM='SIGM_NOEU',
                   NOEUD='NO8',
                   NOM_CMP='SIYY',
                   VALE_CALC=-5.0,
                   ),
                _F(NUME_ORDRE=12,
                   RESULTAT=U2,
                   NOM_CHAM='SIGM_NOEU',
                   NOEUD='NO8',
                   NOM_CMP='SIZZ',
                   VALE_CALC=-18.5,
                   ),
                _F(NUME_ORDRE=16,
                   RESULTAT=U2,
                   NOM_CHAM='SIGM_NOEU',
                   NOEUD='NO8',
                   NOM_CMP='SIZZ',
                   VALE_CALC=-22.498163489942,
                   ),
                _F(NUME_ORDRE=30,
                   RESULTAT=U2,
                   NOM_CHAM='SIGM_NOEU',
                   NOEUD='NO8',
                   NOM_CMP='SIZZ',
                   VALE_CALC=-29.04415418044,
                   ),
                _F(NUME_ORDRE=43,
                   RESULTAT=U2,
                   NOM_CHAM='SIGM_NOEU',
                   NOEUD='NO8',
                   NOM_CMP='SIZZ',
                   VALE_CALC=-34.751954361834,
                   ),
                _F(NUME_ORDRE=45,
                   RESULTAT=U2,
                   NOM_CHAM='SIGM_NOEU',
                   NOEUD='NO8',
                   NOM_CMP='SIZZ',
                   VALE_CALC=-31.375645804983,
                   ),
                _F(NUME_ORDRE=50,
                   RESULTAT=U2,
                   NOM_CHAM='SIGM_NOEU',
                   NOEUD='NO8',
                   NOM_CMP='SIZZ',
                   VALE_CALC=-24.427431031064,
                   ),
                _F(NUME_ORDRE=55,
                   RESULTAT=U2,
                   NOM_CHAM='SIGM_NOEU',
                   NOEUD='NO8',
                   NOM_CMP='SIZZ',
                   VALE_CALC=-21.632457266211,
                   ),
                _F(NUME_ORDRE=65,
                   RESULTAT=U2,
                   NOM_CHAM='SIGM_NOEU',
                   NOEUD='NO8',
                   NOM_CMP='SIZZ',
                   VALE_CALC=-20.721511972402,
                   ),
                ),
          )

TEST_RESU(RESU=(_F(NUME_ORDRE=12,
                   RESULTAT=U2,
                   NOM_CHAM='DEPL',
                   NOEUD='NO8',
                   NOM_CMP='DX',
                   VALE_CALC=8.9999999999999998E-4,
                   ),
                _F(NUME_ORDRE=16,
                   RESULTAT=U2,
                   NOM_CHAM='DEPL',
                   NOEUD='NO8',
                   NOM_CMP='DX',
                   VALE_CALC=1.2229614325826E-3,
                   ),
                _F(NUME_ORDRE=30,
                   RESULTAT=U2,
                   NOM_CHAM='DEPL',
                   NOEUD='NO8',
                   NOM_CMP='DX',
                   VALE_CALC=2.8230094282064E-3,
                   ),
                _F(NUME_ORDRE=43,
                   RESULTAT=U2,
                   NOM_CHAM='DEPL',
                   NOEUD='NO8',
                   NOM_CMP='DX',
                   VALE_CALC=4.5994438828512E-3,
                   ),
                _F(NUME_ORDRE=45,
                   RESULTAT=U2,
                   NOM_CHAM='DEPL',
                   NOEUD='NO8',
                   NOM_CMP='DX',
                   VALE_CALC=5.3928734457109E-3,
                   ),
                _F(NUME_ORDRE=50,
                   RESULTAT=U2,
                   NOM_CHAM='DEPL',
                   NOEUD='NO8',
                   NOM_CMP='DX',
                   VALE_CALC=7.4178785353901E-3,
                   ),
                _F(NUME_ORDRE=55,
                   RESULTAT=U2,
                   NOM_CHAM='DEPL',
                   NOEUD='NO8',
                   NOM_CMP='DX',
                   VALE_CALC=9.0738494094006E-3,
                   ),
                _F(NUME_ORDRE=65,
                   RESULTAT=U2,
                   NOM_CHAM='DEPL',
                   NOEUD='NO8',
                   NOM_CMP='DX',
                   VALE_CALC=0.011925676842219,
                   ),
                _F(NUME_ORDRE=12,
                   RESULTAT=U2,
                   NOM_CHAM='DEPL',
                   NOEUD='NO8',
                   NOM_CMP='DZ',
                   VALE_CALC=-3.0000000000000001E-3,
                   ),
                _F(NUME_ORDRE=65,
                   RESULTAT=U2,
                   NOM_CHAM='DEPL',
                   NOEUD='NO8',
                   NOM_CMP='DZ',
                   VALE_CALC=-0.016250000000000001,
                   ),
                ),
          )

FIN();
#
