# TITRE CYLINDRE EN INCOMPRESSIBLE GRANDES DEFORMATIONS (TRIA6 QUAD8) PLAN
# ======================================================================
# COPYRIGHT (C) 1991 - 2015  EDF R&D                  WWW.CODE-ASTER.ORG
# THIS PROGRAM IS FREE SOFTWARE; YOU CAN REDISTRIBUTE IT AND/OR MODIFY
# IT UNDER THE TERMS OF THE GNU GENERAL PUBLIC LICENSE AS PUBLISHED BY
# THE FREE SOFTWARE FOUNDATION; EITHER VERSION 2 OF THE LICENSE, OR
# (AT YOUR OPTION) ANY LATER VERSION.
#
# THIS PROGRAM IS DISTRIBUTED IN THE HOPE THAT IT WILL BE USEFUL, BUT
# WITHOUT ANY WARRANTY; WITHOUT EVEN THE IMPLIED WARRANTY OF
# MERCHANTABILITY OR FITNESS FOR A PARTICULAR PURPOSE. SEE THE GNU
# GENERAL PUBLIC LICENSE FOR MORE DETAILS.
#
# YOU SHOULD HAVE RECEIVED A COPY OF THE GNU GENERAL PUBLIC LICENSE
# ALONG WITH THIS PROGRAM; IF NOT, WRITE TO EDF R&D CODE_ASTER,
#    1 AVENUE DU GENERAL DE GAULLE, 92141 CLAMART CEDEX, FRANCE.
# ======================================================================
# CYLINDRE CREUX EN INCOMPRESSIBLE (NU=0.4999)
# SOUS DEPLACEMENT RADIAL (6.E-5m)
#
# MODELISATION : ELEMENTS MECANIQUE PLAN_INCO_UPG (TRIA6 QUAD8)
# MAILLAGE     : ALIBABA > ASTER
# ----------------------------------------------------------------------
# GROUPES DE NOEUDS ET MAILLES: A B C D E F
#              BORDAB=GRNM11    FACEEF=GRMA12     FACEAE=GRMA13
# ----------------------------------------------------------------------

DEBUT(CODE=_F(
              NIV_PUB_WEB='INTERNET'),
      DEBUG=_F(SDVERI='OUI'));

M=LIRE_MAILLAGE(FORMAT='MED');

MO=AFFE_MODELE(MAILLAGE=M,
               
               AFFE=_F(TOUT='OUI',
                       PHENOMENE='MECANIQUE',
                       MODELISATION='D_PLAN_INCO_UPG'));

MA=DEFI_MATERIAU(ELAS=_F(E=200000.0,
                         NU=0.4999,
                         ALPHA=0.),
                 ECRO_LINE=_F(D_SIGM_EPSI=0.,
                              SY=1.E6));

CM=AFFE_MATERIAU(MAILLAGE=M,
                 AFFE=_F(TOUT='OUI',
                         MATER=MA));

CLIM=AFFE_CHAR_MECA(MODELE=MO,
                    DDL_IMPO=_F(GROUP_MA='GRMA11',
                                DX=0.0),
                    FACE_IMPO=(_F(GROUP_MA='GRMA12',
                                  DNOR=0.0),
                               _F(GROUP_MA='GRMA13',
                                  DNOR=-6e-05)));

L_INST1=DEFI_LIST_REEL(DEBUT=0.0,
                       INTERVALLE=_F(JUSQU_A=1.0,
                                     NOMBRE=1));

RAMPE=DEFI_FONCTION(NOM_PARA='INST',VALE=(0.0,0.0,
                          1.0,1.0,
                          ),PROL_DROITE='CONSTANT');

# LES SYSTEMES LINEAIRES SONT DIFFICILES A RESOUDRE.
# ON DEVERROUILLE LA DETECTION DE SINGULARITE. LE PROCESSUS DE NEWTON
# CORRIGE LES EVENTUELLES DERIVES.
EVOL=STAT_NON_LINE(MODELE=MO,
                   CHAM_MATER=CM,
                   EXCIT=_F(CHARGE=CLIM,
                            FONC_MULT=RAMPE),
                   COMPORTEMENT=_F(RELATION='VMIS_ISOT_LINE',
                                DEFORMATION='GDEF_LOG'),
                   INCREMENT=_F(LIST_INST=L_INST1),
                   NEWTON=_F(REAC_ITER=1),
                   CONVERGENCE=_F(SIGM_REFE=60.0,
                                  EPSI_REFE=3.E-4,
                                  RESI_REFE_RELA=1.E-3),
                   SOLVEUR=_F(METHODE='MUMPS',
   NPREC=-1));

EVOL=CALC_CHAMP(reuse=EVOL,RESULTAT=EVOL,CRITERES=('SIEQ_ELNO'),CONTRAINTE=('SIGM_ELNO'))


EVOL=CALC_ERREUR(reuse =EVOL,
                 RESULTAT=EVOL,
                 OPTION=('ERME_ELEM','ERME_ELNO'));

EVOL=CALC_CHAMP(reuse =EVOL,
             RESULTAT=EVOL,
             CONTRAINTE='SIGM_NOEU',CRITERES='SIEQ_NOEU');

#---------------------------------------------------------------
#    POSTTRAITEMENT

TEST_RESU(RESU=(_F(GROUP_NO='A',
                   INST=1.0,
                   REFERENCE='ANALYTIQUE',
                   RESULTAT=EVOL,
                   NOM_CHAM='DEPL',
                   NOM_CMP='DX',
                   VALE_CALC=-1.9106739769111E-24,
                   VALE_REFE=0.0,
                   CRITERE='ABSOLU',),
                _F(GROUP_NO='A',
                   INST=1.0,
                   REFERENCE='ANALYTIQUE',
                   RESULTAT=EVOL,
                   NOM_CHAM='DEPL',
                   NOM_CMP='DY',
                   VALE_CALC= 6.0046297648992E-05,
                   VALE_REFE=6.E-05,
                   CRITERE='RELATIF',
                   PRECISION=1.E-3,),
                _F(GROUP_NO='F',
                   INST=1.0,
                   REFERENCE='ANALYTIQUE',
                   RESULTAT=EVOL,
                   NOM_CHAM='DEPL',
                   NOM_CMP='DX',
                   VALE_CALC=-2.121169249588E-05,
                   VALE_REFE=-2.1217941E-05,
                   CRITERE='RELATIF',
                   PRECISION=3.E-4,),
                _F(GROUP_NO='F',
                   INST=1.0,
                   REFERENCE='ANALYTIQUE',
                   RESULTAT=EVOL,
                   NOM_CHAM='DEPL',
                   NOM_CMP='DY',
                   VALE_CALC= 2.121169249588E-05,
                   VALE_REFE=2.1217941E-05,
                   CRITERE='RELATIF',
                   PRECISION=3.E-4,),
                ),
          )

TEST_RESU(RESU=(_F(NUME_ORDRE=1,
                   GROUP_NO='A',
                   REFERENCE='ANALYTIQUE',
                   RESULTAT=EVOL,
                   NOM_CHAM='SIGM_NOEU',
                   NOM_CMP='SIXX',
                   VALE_CALC=99.709991247555,
                   VALE_REFE=99.9566,
                   CRITERE='RELATIF',
                   PRECISION=5.E-3,
                   MAILLE='M1',),
                _F(NUME_ORDRE=1,
                   GROUP_NO='A',
                   REFERENCE='ANALYTIQUE',
                   RESULTAT=EVOL,
                   NOM_CHAM='SIGM_NOEU',
                   NOM_CMP='SIYY',
                   VALE_CALC=-61.047050935634,
                   VALE_REFE=-59.9955,
                   CRITERE='RELATIF',
                   PRECISION=2.E-2,
                   MAILLE='M1',),
                _F(NUME_ORDRE=1,
                   GROUP_NO='A',
                   REFERENCE='ANALYTIQUE',
                   RESULTAT=EVOL,
                   NOM_CHAM='SIGM_NOEU',
                   NOM_CMP='SIZZ',
                   VALE_CALC=19.571641192828,
                   VALE_REFE=19.9326,
                   CRITERE='RELATIF',
                   PRECISION=2.E-2,
                   MAILLE='M1',),
                _F(NUME_ORDRE=1,
                   GROUP_NO='A',
                   REFERENCE='ANALYTIQUE',
                   RESULTAT=EVOL,
                   NOM_CHAM='SIGM_NOEU',
                   NOM_CMP='SIXY',
                   VALE_CALC=1.902109000303,
                   VALE_REFE=0.0,
                   CRITERE='ABSOLU',
                   PRECISION=2.0,
                   MAILLE='M1',),
                _F(NUME_ORDRE=1,
                   GROUP_NO='F',
                   REFERENCE='ANALYTIQUE',
                   RESULTAT=EVOL,
                   NOM_CHAM='SIGM_NOEU',
                   NOM_CMP='SIXX',
                   VALE_CALC=20.045607509038,
                   VALE_REFE=20.003,
                   CRITERE='RELATIF',
                   PRECISION=5.E-3,
                   MAILLE='M223',),
                _F(NUME_ORDRE=1,
                   GROUP_NO='F',
                   REFERENCE='ANALYTIQUE',
                   RESULTAT=EVOL,
                   NOM_CHAM='SIGM_NOEU',
                   NOM_CMP='SIYY',
                   VALE_CALC=19.988327492234,
                   VALE_REFE=20.003,
                   CRITERE='RELATIF',
                   PRECISION=2.5E-3,
                   MAILLE='M223',),
                _F(NUME_ORDRE=1,
                   GROUP_NO='F',
                   REFERENCE='ANALYTIQUE',
                   RESULTAT=EVOL,
                   NOM_CHAM='SIGM_NOEU',
                   NOM_CMP='SIZZ',
                   VALE_CALC=20.007773168726,
                   VALE_REFE=20.003,
                   CRITERE='RELATIF',
                   PRECISION=5.E-4,
                   MAILLE='M223',),
                _F(NUME_ORDRE=1,
                   GROUP_NO='F',
                   REFERENCE='ANALYTIQUE',
                   RESULTAT=EVOL,
                   NOM_CHAM='SIGM_NOEU',
                   NOM_CMP='SIXY',
                   VALE_CALC=20.025165548232,
                   VALE_REFE=20.003,
                   CRITERE='RELATIF',
                   PRECISION=2.E-3,
                   MAILLE='M223',),
                ),
          )

TEST_RESU(RESU=(_F(GROUP_NO='A',
                   INST=1.0,
                   REFERENCE='ANALYTIQUE',
                   RESULTAT=EVOL,
                   NOM_CHAM='SIEQ_NOEU',
                   NOM_CMP='VMIS',
                   VALE_CALC=139.26449064058,
                   VALE_REFE=138.5226,
                   CRITERE='RELATIF',
                   PRECISION=6.E-3,
                   MAILLE='M1',),
                _F(GROUP_NO='A',
                   INST=1.0,
                   REFERENCE='ANALYTIQUE',
                   RESULTAT=EVOL,
                   NOM_CHAM='SIEQ_NOEU',
                   NOM_CMP='TRESCA',
                   VALE_CALC=160.80745141887,
                   VALE_REFE=159.9521,
                   CRITERE='RELATIF',
                   PRECISION=6.E-3,
                   MAILLE='M1',),
                _F(GROUP_NO='A',
                   INST=1.0,
                   REFERENCE='ANALYTIQUE',
                   RESULTAT=EVOL,
                   NOM_CHAM='SIEQ_NOEU',
                   NOM_CMP='PRIN_1',
                   VALE_CALC=-61.072255553472,
                   VALE_REFE=-59.9955,
                   CRITERE='RELATIF',
                   PRECISION=2.E-2,
                   MAILLE='M1',),
                _F(GROUP_NO='A',
                   INST=1.0,
                   REFERENCE='ANALYTIQUE',
                   RESULTAT=EVOL,
                   NOM_CHAM='SIEQ_NOEU',
                   NOM_CMP='PRIN_2',
                   VALE_CALC=19.571641192828,
                   VALE_REFE=19.9326,
                   CRITERE='RELATIF',
                   PRECISION=2.E-2,
                   MAILLE='M1',),
                _F(GROUP_NO='A',
                   INST=1.0,
                   REFERENCE='ANALYTIQUE',
                   RESULTAT=EVOL,
                   NOM_CHAM='SIEQ_NOEU',
                   NOM_CMP='PRIN_3',
                   VALE_CALC=99.735195865393,
                   VALE_REFE=99.9566,
                   CRITERE='RELATIF',
                   PRECISION=3.E-3,
                   MAILLE='M1',),
                _F(GROUP_NO='A',
                   INST=1.0,
                   REFERENCE='ANALYTIQUE',
                   RESULTAT=EVOL,
                   NOM_CHAM='SIEQ_NOEU',
                   NOM_CMP='VMIS_SG',
                   VALE_CALC=139.26449064058,
                   VALE_REFE=138.5226,
                   CRITERE='RELATIF',
                   PRECISION=6.E-3,
                   MAILLE='M1',),
                ),
          )

#
#  TEST SUR L'ESTIMATEUR D'ERREUR EN RESIDU

TEST_RESU(RESU=_F(INST=1.0,
                  POINT=1,
                  RESULTAT=EVOL,
                  NOM_CHAM='ERME_ELEM',
                  NOM_CMP='NUEST',
                  VALE_CALC=5.4286281770815E-04,
                  CRITERE='RELATIF',
                  MAILLE='M2',
                  ),
          )

TEST_RESU(RESU=_F(GROUP_NO='A',
                  INST=1.0,
                  RESULTAT=EVOL,
                  NOM_CHAM='ERME_ELNO',
                  NOM_CMP='ERREST',
                  VALE_CALC=2.7480945282574E-06,
                  CRITERE='RELATIF',
                  MAILLE='M2',
                  ),
          )

FIN();
