# MODIF  DATE 07/09/2010   AUTEUR IDOUX L.IDOUX 
# TITRE CUBE EN TRACTION SIMPLE ET COMPRESSION AVEC LA LOI ENDO_ORTH_BETON 
# ssnv217b.para = tps_job 60 mem_job 256Mo ncpus 1 liste_test S
#            CONFIGURATION MANAGEMENT OF EDF VERSION
# ======================================================================
# COPYRIGHT (C) 1991 - 2010  EDF R&D                  WWW.CODE-ASTER.ORG
# THIS PROGRAM IS FREE SOFTWARE; YOU CAN REDISTRIBUTE IT AND/OR MODIFY  
# IT UNDER THE TERMS OF THE GNU GENERAL PUBLIC LICENSE AS PUBLISHED BY  
# THE FREE SOFTWARE FOUNDATION; EITHER VERSION 2 OF THE LICENSE, OR     
# (AT YOUR OPTION) ANY LATER VERSION.                                                    
#                                                                       
# THIS PROGRAM IS DISTRIBUTED IN THE HOPE THAT IT WILL BE USEFUL, BUT   
# WITHOUT ANY WARRANTY; WITHOUT EVEN THE IMPLIED WARRANTY OF            
# MERCHANTABILITY OR FITNESS FOR A PARTICULAR PURPOSE. SEE THE GNU      
# GENERAL PUBLIC LICENSE FOR MORE DETAILS.                              
#                                                                       
# YOU SHOULD HAVE RECEIVED A COPY OF THE GNU GENERAL PUBLIC LICENSE     
# ALONG WITH THIS PROGRAM; IF NOT, WRITE TO EDF R&D CODE_ASTER,         
#    1 AVENUE DU GENERAL DE GAULLE, 92141 CLAMART CEDEX, FRANCE.        
# ======================================================================

DEBUT(CODE=_F(NOM='SSNV217B',NIV_PUB_WEB='INTERNET',VISU_EFICAS='OUI'),);

MA=LIRE_MAILLAGE(FORMAT='MED',);

MO=AFFE_MODELE(MAILLAGE=MA,
               AFFE=_F(TOUT='OUI',
                       PHENOMENE='MECANIQUE',
                       MODELISATION='3D_GRAD_EPSI',),);

BETON=DEFI_MATERIAU(NON_LOCAL=_F(LONG_CARA=1.0,),
                    ELAS=_F(E=32000000000.0,
                            NU=0.2,
                            RHO=2400.0,),
                    ENDO_ORTH_BETON=_F(K0=300.0,
                                       K1=10500000.0,
                                       ECROB=1000.0,
                                       ECROD=60000.0,),);

MOMAT=AFFE_MATERIAU(MAILLAGE=MA,
                    AFFE=_F(TOUT='OUI',
                            MATER=BETON,),);

BLOQX=AFFE_CHAR_MECA(MODELE=MO,
                     DDL_IMPO=_F(GROUP_MA='bloc_x',
                                 DX=0.0,),);

BLOQY=AFFE_CHAR_MECA(MODELE=MO,
                     DDL_IMPO=_F(GROUP_MA='bloc_y',
                                 DY=0.0,),);

BLOQZ=AFFE_CHAR_MECA(MODELE=MO,
                     DDL_IMPO=_F(GROUP_MA='bloc_z',
                                 DZ=0.0,),);

DEP_X=AFFE_CHAR_MECA(MODELE=MO,
                     DDL_IMPO=_F(GROUP_MA='depl_x',
                                 DX=0.0025,),);

DEP_Y=AFFE_CHAR_MECA(MODELE=MO,
                     DDL_IMPO=_F(GROUP_MA='depl_y',
                                 DY=0.0025,),);

DEP_Z=AFFE_CHAR_MECA(MODELE=MO,
                     DDL_IMPO=_F(GROUP_MA='depl_z',
                                 DZ=0.0025,),);

DEP_X_2=AFFE_CHAR_MECA(MODELE=MO,
                       DDL_IMPO=_F(GROUP_MA='depl_x',
                                   DX=0.0,),);

DEP_Y_2=AFFE_CHAR_MECA(MODELE=MO,
                       DDL_IMPO=_F(GROUP_MA='depl_y',
                                   DY=0.0,),);

FONC_X=DEFI_FONCTION(NOM_PARA='INST',VALE=(0.0,0.0,
                           0.1,0.73,
                           1.0,1.0,
                           ),PROL_DROITE='CONSTANT',);

FONC_Y=DEFI_FONCTION(NOM_PARA='INST',VALE=(0.0,0.0,1.0,0.0,1.1,0.8,2.0,1.0,),
                     PROL_DROITE='CONSTANT',);

FONC_Z=DEFI_FONCTION(NOM_PARA='INST',VALE=(0.0,0.0,2.0,0.0,2.5,0.5,4.0,-60.0,),
                     PROL_DROITE='CONSTANT',);

L_TPS=DEFI_LIST_REEL(DEBUT=0.0,
                     INTERVALLE=_F(JUSQU_A=4.0,
                                   NOMBRE=40,),);

L_ARCH=DEFI_LIST_REEL(DEBUT=0.0,
                      INTERVALLE=_F(JUSQU_A=4.0,
                                    NOMBRE=40,),);

L_INST=DEFI_LIST_INST(DEFI_LIST=_F(METHODE='MANUEL',
                                   LIST_INST=L_TPS,),
                      ECHEC=_F(SUBD_PAS=10,
                               SUBD_NIVEAU=5,),);

U=STAT_NON_LINE(MODELE=MO,
                CHAM_MATER=MOMAT,
                EXCIT=(_F(CHARGE=DEP_X,
                          FONC_MULT=FONC_X,),
                       _F(CHARGE=BLOQX,),
                       _F(CHARGE=BLOQY,),
                       _F(CHARGE=BLOQZ,),),
                COMP_INCR=_F(RELATION='ENDO_ORTH_BETON',),
                INCREMENT=_F(LIST_INST=L_INST,
                             INST_INIT=0.0,
                             INST_FIN=1.0,),
                ARCHIVAGE=_F(LIST_INST=L_ARCH,
                             ARCH_ETAT_INIT='OUI',),
                NEWTON=_F(REAC_ITER=1,),);


U=STAT_NON_LINE(reuse =U,
                MODELE=MO,
                CHAM_MATER=MOMAT,
                EXCIT=(_F(CHARGE=DEP_Y,
                          FONC_MULT=FONC_Y,),
                       _F(CHARGE=BLOQX,),
                       _F(CHARGE=BLOQY,),
                       _F(CHARGE=BLOQZ,),
                       _F(CHARGE=DEP_X_2,),),
                COMP_INCR=_F(RELATION='ENDO_ORTH_BETON',),
                ETAT_INIT=_F(EVOL_NOLI=U,),
                INCREMENT=_F(LIST_INST=L_INST,
                             INST_INIT=1.0,
                             INST_FIN=2.0,),
                ARCHIVAGE=_F(LIST_INST=L_ARCH,),
                NEWTON=_F(REAC_ITER=1,),);

U=STAT_NON_LINE(reuse =U,
                MODELE=MO,
                CHAM_MATER=MOMAT,
                EXCIT=(_F(CHARGE=DEP_Z,
                          FONC_MULT=FONC_Z,),
                       _F(CHARGE=BLOQX,),
                       _F(CHARGE=BLOQY,),
                       _F(CHARGE=BLOQZ,),
                       _F(CHARGE=DEP_X_2,),
                       _F(CHARGE=DEP_Y_2,),),
                COMP_INCR=_F(RELATION='ENDO_ORTH_BETON',),
                ETAT_INIT=_F(EVOL_NOLI=U,),
                INCREMENT=_F(LIST_INST=L_INST,
                             INST_INIT=2.0,
                             INST_FIN=4.0,),
                ARCHIVAGE=_F(LIST_INST=L_ARCH,),
                NEWTON=_F(REAC_ITER=1,),);

TEST_RESU(RESU=_F(RESULTAT=U,
                  NUME_ORDRE=2,
                  NOM_CHAM='VARI_ELGA',
                  NOM_CMP='V1',
                  MAILLE='M19',
                  POINT=1,
                  VALE=0.9887038,
                  REFERENCE='NON_REGRESSION',),);

TEST_RESU(RESU=_F(RESULTAT=U,
                  NUME_ORDRE=10,
                  NOM_CHAM='SIEF_ELGA',
                  NOM_CMP='SIXX',
                  MAILLE='M19',
                  POINT=1,
                  VALE=7999.991,
                  REFERENCE='NON_REGRESSION',),);

TEST_RESU(RESU=_F(RESULTAT=U,
                  NUME_ORDRE=11,
                  NOM_CHAM='VARI_ELGA',
                  NOM_CMP='V2',
                  MAILLE='M19',
                  POINT=1,
                  VALE=0.99,
                  REFERENCE='NON_REGRESSION',),);

TEST_RESU(RESU=_F(RESULTAT=U,
                  NUME_ORDRE=20,
                  NOM_CHAM='SIEF_ELGA',
                  NOM_CMP='SIYY',
                  MAILLE='M19',
                  POINT=1,
                  VALE=8333.193,
                  REFERENCE='NON_REGRESSION',),);

TEST_RESU(RESU=_F(RESULTAT=U,
                  NUME_ORDRE=22,
                  NOM_CHAM='VARI_ELGA',
                  NOM_CMP='V3',
                  MAILLE='M19',
                  POINT=1,
                  VALE=0.86689832,
                  REFERENCE='NON_REGRESSION',),);

TEST_RESU(RESU=_F(RESULTAT=U,
                  NUME_ORDRE=25,
                  NOM_CHAM='SIEF_ELGA',
                  NOM_CMP='SIZZ',
                  MAILLE='M19',
                  POINT=1,
                  VALE=24072.934,
                  REFERENCE='NON_REGRESSION',),);

TEST_RESU(RESU=_F(RESULTAT=U,
                  NUME_ORDRE=31,
                  NOM_CHAM='VARI_ELGA',
                  NOM_CMP='V7',
                  MAILLE='M19',
                  POINT=1,
                  VALE=0.9754,
                  REFERENCE='NON_REGRESSION',),);

TEST_RESU(RESU=_F(RESULTAT=U,
                  NUME_ORDRE=40,
                  NOM_CHAM='SIEF_ELGA',
                  NOM_CMP='SIZZ',
                  MAILLE='M19',
                  POINT=1,
                  VALE=-533333.33,
                  REFERENCE='NON_REGRESSION',),);

FIN();
