 
 TITRE
CODE_ASTER - 11.00.27 - VERSION DE DEVELOPPEMENT          - FRONTAL1         - L
 FINSF
 %
 COOR_3D
 N1       1.0000000000000000        0.0000000000000000        0.0000000000000000                                                  
 N2      0.86602540408358808       0.49999999948185792        0.0000000000000000                                                  
 N3      0.50000000017025859       0.86602540368613978        0.0000000000000000                                                  
 N4     -2.05103428517353428E-010   1.0000000000000000        0.0000000000000000                                                  
 N5       1.3333333333333333        0.0000000000000000        0.0000000000000000                                                  
 N6       1.1547005387781173       0.66666666597581048        0.0000000000000000                                                  
 N7      0.66666666689367804        1.1547005382481863        0.0000000000000000                                                  
 N8     -2.73471238023137887E-010   1.3333333333333333        0.0000000000000000                                                  
 N9       1.6666666666666667        0.0000000000000000        0.0000000000000000                                                  
 N10       1.4433756734726468       0.83333333246976327        0.0000000000000000                                                  
 N11      0.83333333361709772        1.4433756728102329        0.0000000000000000                                                  
 N12     -3.41839047528922398E-010   1.6666666666666667        0.0000000000000000                                                  
 N13       2.0000000000000000        0.0000000000000000        0.0000000000000000                                                  
 N14       1.7320508081671762       0.99999999896371583        0.0000000000000000                                                  
 N15       1.0000000003405172        1.7320508073722796        0.0000000000000000                                                  
 N16     -4.10206857034706857E-010   2.0000000000000000        0.0000000000000000                                                  
 N17      0.86602540408358808        0.0000000000000000       0.49999999948185792                                                  
 N18      0.75000000051814197       0.43301270159306982       0.49999999948185792                                                  
 N19      0.43301270218924232       0.75000000017394175       0.49999999948185792                                                  
 N20     -1.77624779560670337E-010  0.86602540408358808       0.49999999948185792                                                  
 N21       1.1547005387781173        0.0000000000000000       0.66666666597581048                                                  
 N22       1.0000000006908558       0.57735026879075968       0.66666666597581048                                                  
 N23      0.57735026958565627        1.0000000002319220       0.66666666597581048                                                  
 N24     -2.36833039414227081E-010   1.1547005387781173       0.66666666597581048                                                  
 N25       1.4433756734726468        0.0000000000000000       0.83333333246976327                                                  
 N26       1.2500000008635701       0.72168783598844977       0.83333333246976327                                                  
 N27      0.72168783698207051        1.2500000002899028       0.83333333246976327                                                  
 N28     -2.96041299267783903E-010   1.4433756734726468       0.83333333246976327                                                  
 N29       1.7320508081671762        0.0000000000000000       0.99999999896371583                                                  
 N30       1.5000000010362839       0.86602540318613963       0.99999999896371583                                                  
 N31      0.86602540437848463        1.5000000003478835       0.99999999896371583                                                  
 N32     -3.55249559121340674E-010   1.7320508081671762       0.99999999896371583                                                  
 N33      0.50000000017025859        0.0000000000000000       0.86602540368613978                                                  
 N34      0.43301270218924232       0.24999999982605825       0.86602540368613978                                                  
 N35      0.25000000017025859       0.43301270199051817       0.86602540368613978                                                  
 N36     -1.02551714293597333E-010  0.50000000017025859       0.86602540368613978                                                  
 N37      0.66666666689367804        0.0000000000000000        1.1547005382481863                                                  
 N38      0.57735026958565638       0.33333333310141094        1.1547005382481863                                                  
 N39      0.33333333356034472       0.57735026932069078        1.1547005382481863                                                  
 N40     -1.36735619058129751E-010  0.66666666689367804        1.1547005382481863                                                  
 N41      0.83333333361709772        0.0000000000000000        1.4433756728102329                                                  
 N42      0.72168783698207062       0.41666666637676381        1.4433756728102329                                                  
 N43      0.41666666695043103       0.72168783665086367        1.4433756728102329                                                  
 N44     -1.70919523822662247E-010  0.83333333361709772        1.4433756728102329                                                  
 N45       1.0000000003405172        0.0000000000000000        1.7320508073722796                                                  
 N46      0.86602540437848463       0.49999999965211650        1.7320508073722796                                                  
 N47      0.50000000034051717       0.86602540398103633        1.7320508073722796                                                  
 N48     -2.05103428587194666E-010   1.0000000003405172        1.7320508073722796                                                  
 N49      0.0000000000000000        0.0000000000000000        1.0000000000000000                                                                      
 N50      0.0000000000000000        0.0000000000000000        1.3333333333333333                                                                      
 N51      0.0000000000000000        0.0000000000000000        1.6666666666666667                                                                      
 N52      0.0000000000000000        0.0000000000000000        2.0000000000000000
 FINSF
 %
 HEXA8
  M1     N1  N5  N6  N2  N17 N21 N22 N18
  M2     N2  N6  N7  N3  N18 N22 N23 N19
  M3     N3  N7  N8  N4  N19 N23 N24 N20
  M4     N5  N9  N10 N6  N21 N25 N26 N22
  M5     N6  N10 N11 N7  N22 N26 N27 N23
  M6     N7  N11 N12 N8  N23 N27 N28 N24
  M7     N9  N13 N14 N10 N25 N29 N30 N26
  M8     N10 N14 N15 N11 N26 N30 N31 N27
  M9     N11 N15 N16 N12 N27 N31 N32 N28
  M10    N17 N21 N22 N18 N33 N37 N38 N34
  M11    N18 N22 N23 N19 N34 N38 N39 N35
  M12    N19 N23 N24 N20 N35 N39 N40 N36
  M13    N21 N25 N26 N22 N37 N41 N42 N38
  M14    N22 N26 N27 N23 N38 N42 N43 N39
  M15    N23 N27 N28 N24 N39 N43 N44 N40
  M16    N25 N29 N30 N26 N41 N45 N46 N42
  M17    N26 N30 N31 N27 N42 N46 N47 N43
  M18    N27 N31 N32 N28 N43 N47 N48 N44

FINSF
 %
 PENTA6
  M19    N33 N34 N49 N37 N38 N50
  M20    N34 N35 N49 N38 N39 N50
  M21    N35 N36 N49 N39 N40 N50
  M22    N37 N38 N50 N41 N42 N51
  M23    N38 N39 N50 N42 N43 N51
  M24    N39 N40 N50 N43 N44 N51
  M25    N41 N42 N51 N45 N46 N52
  M26    N42 N43 N51 N46 N47 N52
  M27    N43 N44 N51 N47 N48 N52
 FINSF
 %
 GROUP_NO
 BAS  N5  N6  N7  N8  N9  N10  N11  N12
 FINSF
 %
 GROUP_NO
 X  N5  N9  N21  N25  N37  N41  N50  N51
 FINSF
 %
 GROUP_NO
 Y  N8  N12  N24  N28  N40  N44  N50  N51
 FINSF
 %
 GROUP_NO
 EXT  N13  N14  N15  N16  N29  N30  N31  N32  N45  N46  N47  N48
      N52 
 FINSF
 %
 GROUP_NO
 INT  N1  N2  N3  N4  N17  N18  N19  N20  N33  N34  N35  N36  N49
 FINSF
 %
 GROUP_MA
 MA  M1  M2  M3  M4  M5  M6  M7  M8  M9  M10  M11  M12  M13  M14  M15
     M16  M17  M18   M19  M20  M21  M22  M23  M24  M25  M26  M27
 FINSF
 %
 FIN
