# TITRE TRACTION-COMPRESSION UNIAXIALE ECROUISSAGE MIXTE
# ======================================================================
# COPYRIGHT (C) 1991 - 2015  EDF R&D                  WWW.CODE-ASTER.ORG
# THIS PROGRAM IS FREE SOFTWARE; YOU CAN REDISTRIBUTE IT AND/OR MODIFY
# IT UNDER THE TERMS OF THE GNU GENERAL PUBLIC LICENSE AS PUBLISHED BY
# THE FREE SOFTWARE FOUNDATION; EITHER VERSION 2 OF THE LICENSE, OR
# (AT YOUR OPTION) ANY LATER VERSION.
#
# THIS PROGRAM IS DISTRIBUTED IN THE HOPE THAT IT WILL BE USEFUL, BUT
# WITHOUT ANY WARRANTY; WITHOUT EVEN THE IMPLIED WARRANTY OF
# MERCHANTABILITY OR FITNESS FOR A PARTICULAR PURPOSE. SEE THE GNU
# GENERAL PUBLIC LICENSE FOR MORE DETAILS.
#
# YOU SHOULD HAVE RECEIVED A COPY OF THE GNU GENERAL PUBLIC LICENSE
# ALONG WITH THIS PROGRAM; IF NOT, WRITE TO EDF R&D CODE_ASTER,
#    1 AVENUE DU GENERAL DE GAULLE, 92141 CLAMART CEDEX, FRANCE.
# ======================================================================


DEBUT(CODE=_F(NIV_PUB_WEB='INTERNET'), DEBUG=_F(SDVERI='OUI'))

MAIL=LIRE_MAILLAGE( )

MAT=DEFI_MATERIAU(
          ELAS=_F( E = 200.E+3, NU = .3),
            PRAGER=_F( C = 20.E+3),
            ECRO_LINE=_F( D_SIGM_EPSI = 40.E+3, SY = 400.)
                             )

CM=AFFE_MATERIAU(    MAILLAGE=MAIL,
          AFFE=_F( TOUT = 'OUI',MATER = MAT) )

MOMECA=AFFE_MODELE(  MAILLAGE=MAIL,
          AFFE=_F( TOUT = 'OUI', MODELISATION = '3D', PHENOMENE = 'MECANIQUE'))

CHMECA=AFFE_CHAR_MECA(
            MODELE=MOMECA,FACE_IMPO=(
           _F( MAILLE = 'DEVANT',  DZ = 0.),
           _F( MAILLE = 'BAS',    DY = 0.),
           _F( MAILLE = 'HAUT',   DY = 1.),
           _F( MAILLE = 'GAUCHE', DX = 0.))
                        )

FDEPL=DEFI_FONCTION(
                 NOM_PARA='INST',
               PROL_DROITE='EXCLU',
              PROL_GAUCHE='EXCLU',

                VALE=(
                0.,     0.0,
                1.,     2.E-3,
                2.,     4.5E-3,
                3.,     0.1E-3,
                4.,     -2.0E-3,
                )
              )

L_INST=DEFI_LIST_REEL(       DEBUT=0.,INTERVALLE=(
           _F( JUSQU_A = 1.,    NOMBRE = 2),
                      _F( JUSQU_A = 2.,    NOMBRE = 2),
                      _F( JUSQU_A = 3.,    NOMBRE = 2),
                      _F( JUSQU_A = 4.,    NOMBRE = 2))
         )

U=STAT_NON_LINE( MODELE=MOMECA,
                 CHAM_MATER=CM,
                 EXCIT=_F(   CHARGE = CHMECA,
                             FONC_MULT = FDEPL),
                 COMPORTEMENT=_F(  RELATION = 'VMIS_ECMI_LINE'),
                 INCREMENT=_F(  LIST_INST = L_INST),
                 CONVERGENCE=_F(  RESI_GLOB_RELA = 1.E-6)
              )

U=CALC_CHAMP(reuse=U,CONTRAINTE=('SIGM_ELNO'),VARI_INTERNE=('VARI_ELNO'),RESULTAT=U)


TEST_RESU(RESU=(_F(NUME_ORDRE=2,
                   RESULTAT=U,
                   NOM_CHAM='SIGM_ELNO',
                   NOEUD='N1',
                   NOM_CMP='SIYY',
                   REFERENCE='ANALYTIQUE',
                   VALE_REFE=400.0,
                   VALE_CALC=400.0,
                   PRECISION=1.E-3,
                   MAILLE='M1',),
                _F(NUME_ORDRE=4,
                   RESULTAT=U,
                   NOM_CHAM='SIGM_ELNO',
                   NOEUD='N1',
                   NOM_CMP='SIYY',
                   REFERENCE='ANALYTIQUE',
                   VALE_REFE=500.0,
                   VALE_CALC=500.0,
                   PRECISION=1.E-3,
                   MAILLE='M1',),
                _F(NUME_ORDRE=6,
                   RESULTAT=U,
                   NOM_CHAM='SIGM_ELNO',
                   NOEUD='N1',
                   NOM_CMP='SIYY',
                   REFERENCE='ANALYTIQUE',
                   VALE_REFE=-380.0,
                   VALE_CALC=-380.0,
                   PRECISION=1.E-3,
                   MAILLE='M1',),
                _F(NUME_ORDRE=8,
                   RESULTAT=U,
                   NOM_CHAM='SIGM_ELNO',
                   NOEUD='N1',
                   NOM_CMP='SIYY',
                   REFERENCE='ANALYTIQUE',
                   VALE_REFE=-464.0,
                   VALE_CALC=-464.0,
                   PRECISION=1.E-3,
                   MAILLE='M1',),
                ),
          )

FIN()
