
# MODIF  DATE 16/06/2004   AUTEUR JMBHH01 J.M.PROIX 
# TITRE COMPORTEMENTS ELASTOVISCOPLASTIQUES MONOCRISTALLINS
# RESPONSABLE JMBHH01 J.M.PROIX
#            CONFIGURATION MANAGEMENT OF EDF VERSION
# ======================================================================
# COPYRIGHT (C) 1991 - 2004  EDF R&D                  WWW.CODE-ASTER.ORG
# THIS PROGRAM IS FREE SOFTWARE; YOU CAN REDISTRIBUTE IT AND/OR MODIFY  
# IT UNDER THE TERMS OF THE GNU GENERAL PUBLIC LICENSE AS PUBLISHED BY  
# THE FREE SOFTWARE FOUNDATION; EITHER VERSION 2 OF THE LICENSE, OR     
# (AT YOUR OPTION) ANY LATER VERSION.                                                    
#                                                                       
# THIS PROGRAM IS DISTRIBUTED IN THE HOPE THAT IT WILL BE USEFUL, BUT   
# WITHOUT ANY WARRANTY; WITHOUT EVEN THE IMPLIED WARRANTY OF            
# MERCHANTABILITY OR FITNESS FOR A PARTICULAR PURPOSE. SEE THE GNU      
# GENERAL PUBLIC LICENSE FOR MORE DETAILS.                              
#                                                                       
# YOU SHOULD HAVE RECEIVED A COPY OF THE GNU GENERAL PUBLIC LICENSE     
# ALONG WITH THIS PROGRAM; IF NOT, WRITE TO EDF R&D CODE_ASTER,         
#    1 AVENUE DU GENERAL DE GAULLE, 92141 CLAMART CEDEX, FRANCE.        
# ======================================================================

DEBUT(CODE=_F(NOM='SSNV172A',
              NIV_PUB_WEB='INTERNET',),);

CUBE=LIRE_MAILLAGE();


TROISD=AFFE_MODELE(MAILLAGE=CUBE,
                   AFFE=_F(TOUT='OUI',
                           PHENOMENE='MECANIQUE',
                           MODELISATION='3D',),);
TFIN = 0.955;

NPAS = 20;

NPASC = 200;


LINSTC=DEFI_LIST_REEL(DEBUT=0.0,
                      INTERVALLE=(_F(JUSQU_A=0.755,
                                     NOMBRE=1,),
                                  _F(JUSQU_A=TFIN,
                                     NOMBRE=NPASC,),),);

LINST=DEFI_LIST_REEL(DEBUT=0.0,
                     INTERVALLE=(_F(JUSQU_A=0.755,
                                    NOMBRE=1,),
                                 _F(JUSQU_A=TFIN,
                                    NOMBRE=NPAS,),),);

TRAC=AFFE_CHAR_MECA(MODELE=TROISD,
                    DDL_IMPO=(_F(NOEUD='NO4',
                                 DX=0.0,
                                 DY=0.0,),
                              _F(NOEUD='NO8',
                                 DX=0.0,
                                 DY=0.0,
                                 DZ=0.0,),
                              _F(NOEUD='NO2',
                                 DX=0.0,),
                              _F(NOEUD='NO6',
                                 DX=0.0,),),
                    FORCE_NODALE=(_F(NOEUD=('NO3','NO7',),
                                     FX=25.0,),
                                  _F(NOEUD=('NO1','NO5',),
                                     FX=25.0,),),);

COEF=DEFI_FONCTION(NOM_PARA='INST',
                   VALE=(0.0,0.0,1.0,1.0,),
                   PROL_DROITE='LINEAIRE',
                   PROL_GAUCHE='LINEAIRE',);

ACIER=DEFI_MATERIAU(ELAS=_F(E=145200.0,
                            NU=0.0,),
                    CIN1_CHAB=_F(R_0=75.5,
                                 R_I=85.27,
                                 B=19.34,
                                 C_I=10.0,
                                 K=1.0,
                                 W=0.0,
                                 G_0=36.68,
                                 A_I=1.0,),
                    LEMAITRE=_F(N=10.0,
                                UN_SUR_K=0.025,
                                UN_SUR_M=0.0,),
                    ECOU_VISC1=_F(N=10.0,
                                  K=40.0,
                                  C=10.0,),
                    ECOU_VISC2=_F(N=10.0,
                                  K=40.0,
                                  C=10.0,
                                  D=10000000000.0,
                                  A=0.0,),
                    ECOU_VISC3=_F(K=40.0,
                                  TAUMU=75.5,
                                  GAMMA0=1e-05,
                                  V=1e-06,),
                    ECOU_PLAS1=_F(C=40000.0,),
                    ECRO_ISOT1=_F(R_0=75.5,
                                  Q=9.77,
                                  B=19.34,
                                  H=0.0,),
                    ECRO_ISOT2=_F(R_0=75.5,
                                  Q1=9.77,
                                  B1=19.34,
                                  H=0.0,
                                  Q2=0.0,
                                  B2=0.0,),
                    ECRO_CINE1=_F(D=36.68,),
                    ECRO_CINE2=_F(D=36.68,
                                  GM=100000000000.0,
                                  PM=0.0,
                                  C=0.0,),);

MAT=AFFE_MATERIAU(MAILLAGE=CUBE,
                  AFFE=_F(TOUT='OUI',
                          MATER=ACIER,),);
# ATTENTION TRES SENSIBLE AU PAS DE TEMPS.

SOLCHAB=STAT_NON_LINE(MODELE=TROISD,
                      CHAM_MATER=MAT,
                      EXCIT=(_F(CHARGE=TRAC,
                                FONC_MULT=COEF,
                                TYPE_CHARGE='FIXE_CSTE',),),
                      COMP_INCR=(_F(RELATION='VISC_CIN1_CHAB',
                                    DEFORMATION='PETIT',
                                    TOUT='OUI',),),
                      INCREMENT=(_F(LIST_INST=LINSTC,
                                    SUBD_PAS=4,
                                    SUBD_PAS_MINI=1e-06,),),
                      NEWTON=(_F(REAC_ITER=1,),),
                      CONVERGENCE=(_F(ITER_INTE_MAXI=100,),),
                      ARCHIVAGE=_F(LIST_INST=LINST,),);

SOLCHAB=CALC_ELEM(reuse =SOLCHAB,
                  RESULTAT=SOLCHAB,
                  OPTION=('EPSI_ELGA_DEPL','EPSP_ELGA',),);

TEST_RESU(RESU=(_F(RESULTAT=SOLCHAB,
                   INST=TFIN,
                   NOM_CHAM='SIEF_ELGA',
                   NOM_CMP='SIXX',
                   MAILLE='MA1',
                   POINT=1,
                   VALE=-95.5,
                   REFERENCE='ANALYTIQUE',),
                _F(RESULTAT=SOLCHAB,
                   INST=TFIN,
                   NOM_CHAM='EPSI_ELGA_DEPL',
                   NOM_CMP='EPXX',
                   MAILLE='MA1',
                   POINT=1,
                   VALE=-0.000675943476554,
                   REFERENCE='NON_REGRESSION',),
                _F(RESULTAT=SOLCHAB,
                   INST=TFIN,
                   NOM_CHAM='EPSP_ELGA',
                   NOM_CMP='EPXX',
                   MAILLE='MA1',
                   POINT=1,
                   VALE=-1.82299780001e-05,
                   REFERENCE='NON_REGRESSION',),),);

COMPOR1=DEFI_COMPOR(MONOCRISTAL=(_F(MATER=ACIER,
                                    ECOULEMENT='ECOU_VISC1',
                                    ECRO_ISOT='ECRO_ISOT1',
                                    ECRO_CINE='ECRO_CINE1',
                                    ELAS='ELAS',
                                    FAMI_SYST_GLIS='UNIAXIAL',),),);

SOLNL=STAT_NON_LINE(MODELE=TROISD,
                    CHAM_MATER=MAT,
                    EXCIT=(_F(CHARGE=TRAC,
                              FONC_MULT=COEF,
                              TYPE_CHARGE='FIXE_CSTE',),),
                    COMP_INCR=(_F(RELATION='MONOCRISTAL',
                                  COMPOR=COMPOR1,
                                  DEFORMATION='PETIT',
                                  TOUT='OUI',),),
                    INCREMENT=(_F(LIST_INST=LINST,
                                  SUBD_PAS=4,
                                  SUBD_PAS_MINI=1e-06,),),
                    NEWTON=(_F(PREDICTION='EXTRAPOL',
                               MATRICE='ELASTIQUE',
                               REAC_ITER=0,),),
                    CONVERGENCE=(_F(RESI_GLOB_RELA=1e-06,
                                    ITER_GLOB_MAXI=100,
                                    RESI_INTE_RELA=1e-06,
                                    ITER_INTE_MAXI=100,
                                    ITER_INTE_PAS=4,
                                    RESO_INTE='RUNGE_KUTTA_2',),),);

SOLNL=CALC_ELEM(reuse =SOLNL,
                RESULTAT=SOLNL,
                OPTION=('EPSI_ELGA_DEPL','EPSP_ELGA',),);

TEST_RESU(RESU=(_F(RESULTAT=SOLNL,
                   INST=TFIN,
                   NOM_CHAM='SIEF_ELGA',
                   NOM_CMP='SIXX',
                   MAILLE='MA1',
                   POINT=1,
                   VALE=-95.5,
                   REFERENCE='ANALYTIQUE',),
                _F(RESULTAT=SOLNL,
                   INST=TFIN,
                   NOM_CHAM='EPSI_ELGA_DEPL',
                   NOM_CMP='EPXX',
                   MAILLE='MA1',
                   POINT=1,
                   VALE=-0.00067575375081,
                   REFERENCE='NON_REGRESSION',),
                _F(RESULTAT=SOLNL,
                   INST=TFIN,
                   NOM_CHAM='EPSP_ELGA',
                   NOM_CMP='EPXX',
                   MAILLE='MA1',
                   POINT=1,
                   VALE=-1.80404222067e-05,
                   REFERENCE='NON_REGRESSION',),),);
# COMPARASION A VISC_CIN1_CHAB, MAIS PROBLEME DE SENSIBILITE AU PAS DE 
# TEMPS. CELA CONVERGE QUAND DELTAT TEND VERS 0

TEST_RESU(RESU=(_F(RESULTAT=SOLNL,
                   INST=TFIN,
                   NOM_CHAM='SIEF_ELGA',
                   NOM_CMP='SIXX',
                   MAILLE='MA1',
                   POINT=1,
                   VALE=-95.5,
                   REFERENCE='ANALYTIQUE',),
                _F(RESULTAT=SOLNL,
                   INST=TFIN,
                   NOM_CHAM='EPSI_ELGA_DEPL',
                   NOM_CMP='EPXX',
                   MAILLE='MA1',
                   POINT=1,
                   VALE=-0.00067594,
                   REFERENCE='AUTRE_ASTER',),
                _F(RESULTAT=SOLNL,
                   INST=TFIN,
                   NOM_CHAM='EPSP_ELGA',
                   NOM_CMP='EPXX',
                   MAILLE='MA1',
                   POINT=1,
                   VALE=-1.82299780001e-05,
                   PRECISION=(0.02,0.0001,),
                   REFERENCE='AUTRE_ASTER',),),);

COMPOR2=DEFI_COMPOR(MONOCRISTAL=(_F(MATER=ACIER,
                                    ECOULEMENT='ECOU_VISC2',
                                    ECRO_ISOT='ECRO_ISOT2',
                                    ECRO_CINE='ECRO_CINE2',
                                    ELAS='ELAS',
                                    FAMI_SYST_GLIS='UNIAXIAL',),),);

SOLNL2=STAT_NON_LINE(MODELE=TROISD,
                     CHAM_MATER=MAT,
                     EXCIT=(_F(CHARGE=TRAC,
                               FONC_MULT=COEF,
                               TYPE_CHARGE='FIXE_CSTE',),),
                     COMP_INCR=(_F(RELATION='MONOCRISTAL',
                                   COMPOR=COMPOR2,
                                   TOUT='OUI',),),
                     INCREMENT=(_F(LIST_INST=LINST,
                                   SUBD_PAS=4,
                                   SUBD_PAS_MINI=1e-06,),),
                     NEWTON=(_F(PREDICTION='EXTRAPOL',
                                MATRICE='ELASTIQUE',
                                REAC_ITER=0,),),
                     CONVERGENCE=(_F(RESI_GLOB_RELA=1e-06,
                                     ITER_GLOB_MAXI=100,
                                     RESI_INTE_RELA=1e-06,
                                     ITER_INTE_MAXI=100,
                                     ITER_INTE_PAS=4,
                                     RESO_INTE='RUNGE_KUTTA_2',),),);

SOLNL2=CALC_ELEM(reuse =SOLNL2,
                 RESULTAT=SOLNL2,
                 OPTION=('EPSI_ELGA_DEPL','EPSP_ELGA',),);

TEST_RESU(RESU=(_F(RESULTAT=SOLNL2,
                   INST=TFIN,
                   NOM_CHAM='SIEF_ELGA',
                   NOM_CMP='SIXX',
                   MAILLE='MA1',
                   POINT=1,
                   VALE=-95.5,
                   REFERENCE='ANALYTIQUE',),
                _F(RESULTAT=SOLNL2,
                   INST=TFIN,
                   NOM_CHAM='EPSI_ELGA_DEPL',
                   NOM_CMP='EPXX',
                   MAILLE='MA1',
                   POINT=1,
                   VALE=-0.00067575375081,
                   REFERENCE='NON_REGRESSION',),
                _F(RESULTAT=SOLNL2,
                   INST=TFIN,
                   NOM_CHAM='EPSP_ELGA',
                   NOM_CMP='EPXX',
                   MAILLE='MA1',
                   POINT=1,
                   VALE=-1.80404222067e-05,
                   REFERENCE='NON_REGRESSION',),),);
# INTEGRATION IMPLICITE

SOLNL3=STAT_NON_LINE(MODELE=TROISD,
                     CHAM_MATER=MAT,
                     EXCIT=(_F(CHARGE=TRAC,
                               FONC_MULT=COEF,
                               TYPE_CHARGE='FIXE_CSTE',),),
                     COMP_INCR=(_F(RELATION='MONOCRISTAL',
                                   COMPOR=COMPOR1,
                                   DEFORMATION='PETIT',
                                   TOUT='OUI',),),
                     INCREMENT=(_F(LIST_INST=LINST,
                                   SUBD_PAS=4,
                                   SUBD_PAS_MINI=1e-06,),),
                     NEWTON=(_F(REAC_ITER=1,),),
                     CONVERGENCE=(_F(RESI_GLOB_RELA=1e-06,
                                     ITER_GLOB_MAXI=100,
                                     RESI_INTE_RELA=1e-06,
                                     ITER_INTE_MAXI=100,
                                     ITER_INTE_PAS=10,
                                     RESO_INTE='IMPLICITE',),),);

SOLNL3=CALC_ELEM(reuse =SOLNL3,
                 RESULTAT=SOLNL3,
                 OPTION=('EPSI_ELGA_DEPL','EPSP_ELGA',),);

TEST_RESU(RESU=(_F(RESULTAT=SOLNL3,
                   INST=TFIN,
                   NOM_CHAM='SIEF_ELGA',
                   NOM_CMP='SIXX',
                   MAILLE='MA1',
                   POINT=1,
                   VALE=-95.5,
                   REFERENCE='ANALYTIQUE',),
                _F(RESULTAT=SOLNL3,
                   INST=TFIN,
                   NOM_CHAM='EPSI_ELGA_DEPL',
                   NOM_CMP='EPXX',
                   MAILLE='MA1',
                   POINT=1,
                   VALE=-0.000676254731722,
                   REFERENCE='NON_REGRESSION',),
                _F(RESULTAT=SOLNL3,
                   INST=TFIN,
                   NOM_CHAM='EPSP_ELGA',
                   NOM_CMP='EPXX',
                   MAILLE='MA1',
                   POINT=1,
                   VALE=-1.85415145142e-05,
                   REFERENCE='NON_REGRESSION',),),);
# COMPARASION A VISC_CIN1_CHAB, MAIS PROBLEME DE SENSIBILITE AU PAS DE 
# TEMPS. CELA CONVERGE QUAND DELTAT TEND VERS 0

TEST_RESU(RESU=(_F(RESULTAT=SOLNL3,
                   INST=TFIN,
                   NOM_CHAM='SIEF_ELGA',
                   NOM_CMP='SIXX',
                   MAILLE='MA1',
                   POINT=1,
                   VALE=-95.5,
                   REFERENCE='ANALYTIQUE',),
                _F(RESULTAT=SOLNL3,
                   INST=TFIN,
                   NOM_CHAM='EPSI_ELGA_DEPL',
                   NOM_CMP='EPXX',
                   MAILLE='MA1',
                   POINT=1,
                   VALE=-0.000675943476554,
                   REFERENCE='AUTRE_ASTER',),
                _F(RESULTAT=SOLNL3,
                   INST=TFIN,
                   NOM_CHAM='EPSP_ELGA',
                   NOM_CMP='EPXX',
                   MAILLE='MA1',
                   POINT=1,
                   VALE=-1.82299780001e-05,
                   PRECISION=(0.02,0.0001,),
                   REFERENCE='AUTRE_ASTER',),),);
#  TEST SANS VALEUR DE COMPARAISON

ORIEN=AFFE_CARA_ELEM(MODELE=TROISD,
                     MASSIF=_F(GROUP_MA='TOUT',
                               ANGL_REP=(30.0,0.0,0.0,),),);

COMPORT=DEFI_COMPOR(MONOCRISTAL=(_F(MATER=ACIER,
                                    ECOULEMENT='ECOU_VISC1',
                                    ECRO_ISOT='ECRO_ISOT1',
                                    ECRO_CINE='ECRO_CINE1',
                                    ELAS='ELAS',
                                    FAMI_SYST_GLIS='BASAL',),
                                 _F(MATER=ACIER,
                                    ECOULEMENT='ECOU_VISC2',
                                    ECRO_ISOT='ECRO_ISOT2',
                                    ECRO_CINE='ECRO_CINE2',
                                    FAMI_SYST_GLIS='PRISMATIQUE',),
                                 _F(MATER=ACIER,
                                    ECOULEMENT='ECOU_VISC3',
                                    ECRO_ISOT='ECRO_ISOT1',
                                    ECRO_CINE='ECRO_CINE2',
                                    FAMI_SYST_GLIS='CUBIQUE1',),
                                 _F(MATER=ACIER,
                                    ECOULEMENT='ECOU_VISC3',
                                    ECRO_ISOT='ECRO_ISOT2',
                                    ECRO_CINE='ECRO_CINE1',
                                    FAMI_SYST_GLIS='MACLAGE',),),);

SOLNL4=STAT_NON_LINE(MODELE=TROISD,
                     CHAM_MATER=MAT,
                     CARA_ELEM=ORIEN,
                     EXCIT=(_F(CHARGE=TRAC,
                               FONC_MULT=COEF,
                               TYPE_CHARGE='FIXE_CSTE',),),
                     COMP_INCR=(_F(RELATION='MONOCRISTAL',
                                   COMPOR=COMPORT,
                                   TOUT='OUI',),),
                     INCREMENT=(_F(LIST_INST=LINST,
                                   SUBD_PAS=4,
                                   SUBD_PAS_MINI=1e-06,),),
                     NEWTON=(_F(PREDICTION='EXTRAPOL',
                                MATRICE='ELASTIQUE',
                                REAC_ITER=1,),),
                     CONVERGENCE=(_F(RESI_GLOB_RELA=1e-06,
                                     ITER_GLOB_MAXI=100,
                                     RESI_INTE_RELA=1e-06,
                                     ITER_INTE_MAXI=100,
                                     ITER_INTE_PAS=10,
                                     RESO_INTE='IMPLICITE',),),);

SOLNL4=CALC_ELEM(reuse =SOLNL4,
                 RESULTAT=SOLNL4,
                 OPTION=('EPSI_ELGA_DEPL','EPSP_ELGA',),);

TEST_RESU(RESU=(_F(RESULTAT=SOLNL4,
                   INST=TFIN,
                   NOM_CHAM='SIEF_ELGA',
                   NOM_CMP='SIXX',
                   MAILLE='MA1',
                   POINT=1,
                   VALE=-95.5,
                   REFERENCE='ANALYTIQUE',),
                _F(RESULTAT=SOLNL4,
                   INST=TFIN,
                   NOM_CHAM='EPSI_ELGA_DEPL',
                   NOM_CMP='EPXX',
                   MAILLE='MA1',
                   POINT=1,
                   VALE=-0.000657713498623,
                   REFERENCE='NON_REGRESSION',),),);
#IMPR_RESU(RESU=_F(RESULTAT=SOLNL3),)
#IMPR_RESU(RESU=_F(RESULTAT=SOLNL4),)

FIN(FORMAT_HDF='OUI',);
