# TITRE CYLINDRE EN INCOMPRESSIBLE GRANDES DEFORMATIONS (TRIA6 QUAD8) PLAN
# ======================================================================
# COPYRIGHT (C) 1991 - 2013  EDF R&D                  WWW.CODE-ASTER.ORG
# THIS PROGRAM IS FREE SOFTWARE; YOU CAN REDISTRIBUTE IT AND/OR MODIFY
# IT UNDER THE TERMS OF THE GNU GENERAL PUBLIC LICENSE AS PUBLISHED BY
# THE FREE SOFTWARE FOUNDATION; EITHER VERSION 2 OF THE LICENSE, OR
# (AT YOUR OPTION) ANY LATER VERSION.
#
# THIS PROGRAM IS DISTRIBUTED IN THE HOPE THAT IT WILL BE USEFUL, BUT
# WITHOUT ANY WARRANTY; WITHOUT EVEN THE IMPLIED WARRANTY OF
# MERCHANTABILITY OR FITNESS FOR A PARTICULAR PURPOSE. SEE THE GNU
# GENERAL PUBLIC LICENSE FOR MORE DETAILS.
#
# YOU SHOULD HAVE RECEIVED A COPY OF THE GNU GENERAL PUBLIC LICENSE
# ALONG WITH THIS PROGRAM; IF NOT, WRITE TO EDF R&D CODE_ASTER,
#    1 AVENUE DU GENERAL DE GAULLE, 92141 CLAMART CEDEX, FRANCE.
# ======================================================================
# CYLINDRE CREUX EN INCOMPRESSIBLE (NU=0.4999)
# SOUS DEPLACEMENT RADIAL (6.E-5m)
#
# MODELISATION : ELEMENTS MECANIQUE PLAN_INCO (TRIA6 QUAD8)
# MAILLAGE     : ALIBABA > ASTER
# ----------------------------------------------------------------------
# GROUPES DE NOEUDS ET MAILLES: A B C D E F
#              BORDAB=GRNM11    FACEEF=GRMA12     FACEAE=GRMA13
# ----------------------------------------------------------------------

DEBUT(CODE=_F(NOM='SSNV112C',
              NIV_PUB_WEB='INTERNET'),
      DEBUG=_F(SDVERI='OUI'));

M=LIRE_MAILLAGE(FORMAT='MED');

MO=AFFE_MODELE(MAILLAGE=M,
               VERIF='MAILLE',
               AFFE=_F(TOUT='OUI',
                       PHENOMENE='MECANIQUE',
                       MODELISATION='D_PLAN_INCO_GD'));

MA=DEFI_MATERIAU(ELAS=_F(E=200000.0,
                         NU=0.4999,
                         ALPHA=0.),
                 ECRO_LINE=_F(D_SIGM_EPSI=0.,
                              SY=1.E6));

CM=AFFE_MATERIAU(MAILLAGE=M,
                 AFFE=_F(TOUT='OUI',
                         MATER=MA));

CLIM=AFFE_CHAR_MECA(MODELE=MO,
                    DDL_IMPO=_F(GROUP_MA='GRMA11',
                                DX=0.0),
                    FACE_IMPO=(_F(GROUP_MA='GRMA12',
                                  DNOR=0.0),
                               _F(GROUP_MA='GRMA13',
                                  DNOR=-6e-05)));

L_INST1=DEFI_LIST_REEL(DEBUT=0.0,
                       INTERVALLE=_F(JUSQU_A=1.0,
                                     NOMBRE=1));

RAMPE=DEFI_FONCTION(NOM_PARA='INST',VALE=(0.0,0.0,
                          1.0,1.0,
                          ),PROL_DROITE='CONSTANT');

# LES SYSTEMES LINEAIRES SONT DIFFICILES A RESOUDRE.
# ON DEVERROUILLE LA DETECTION DE SINGULARITE. LE PROCESSUS DE NEWTON
# CORRIGE LES EVENTUELLES DERIVES.
EVOL=STAT_NON_LINE(MODELE=MO,
                   CHAM_MATER=CM,
                   EXCIT=_F(CHARGE=CLIM,
                            FONC_MULT=RAMPE),
                   COMP_INCR=_F(RELATION='VMIS_ISOT_LINE',
                                DEFORMATION='SIMO_MIEHE'),
                   INCREMENT=_F(LIST_INST=L_INST1),
                   NEWTON=_F(REAC_ITER=1),
                   CONVERGENCE=_F(SIGM_REFE=60.0,
                                  EPSI_REFE=3.E-4,
                                  RESI_REFE_RELA=1.E-3),
                   SOLVEUR=_F(METHODE='MUMPS',
   NPREC=-1));

EVOL=CALC_CHAMP(reuse=EVOL,RESULTAT=EVOL,CRITERES=('SIEQ_ELNO'),CONTRAINTE=('SIGM_ELNO'))


EVOL=CALC_ERREUR(reuse =EVOL,
                 RESULTAT=EVOL,
                 OPTION=('ERME_ELEM','ERME_ELNO'));

EVOL=CALC_CHAMP(reuse =EVOL,
             RESULTAT=EVOL,
             CONTRAINTE='SIGM_NOEU',CRITERES='SIEQ_NOEU');

#---------------------------------------------------------------
#    POSTTRAITEMENT

TEST_RESU(RESU=(_F(GROUP_NO='A',
                   INST=1.0,
                   REFERENCE='ANALYTIQUE',
                   RESULTAT=EVOL,
                   NOM_CHAM='DEPL',
                   NOM_CMP='DX',
                   VALE_CALC=-6.5235539599074E-25,
                   VALE_REFE=0.0,
                   CRITERE='ABSOLU',
                   PRECISION=1.0000000000000001E-05,),
                _F(GROUP_NO='A',
                   INST=1.0,
                   REFERENCE='ANALYTIQUE',
                   RESULTAT=EVOL,
                   NOM_CHAM='DEPL',
                   NOM_CMP='DY',
                   VALE_CALC= 6.0046297648992E-05,
                   VALE_REFE=6.0000000000000002E-05,
                   CRITERE='RELATIF',
                   PRECISION=5.0000000000000001E-3,),
                _F(GROUP_NO='F',
                   INST=1.0,
                   REFERENCE='ANALYTIQUE',
                   RESULTAT=EVOL,
                   NOM_CHAM='DEPL',
                   NOM_CMP='DX',
                   VALE_CALC=-2.1212444103383E-05,
                   VALE_REFE=-2.1217941000000001E-05,
                   CRITERE='RELATIF',
                   PRECISION=5.0000000000000001E-3,),
                _F(GROUP_NO='F',
                   INST=1.0,
                   REFERENCE='ANALYTIQUE',
                   RESULTAT=EVOL,
                   NOM_CHAM='DEPL',
                   NOM_CMP='DY',
                   VALE_CALC= 2.1212444103383E-05,
                   VALE_REFE=2.1217941000000001E-05,
                   CRITERE='RELATIF',
                   PRECISION=5.0000000000000001E-3,),
                ),
          )

TEST_RESU(RESU=(_F(NUME_ORDRE=1,
                   GROUP_NO='A',
                   REFERENCE='ANALYTIQUE',
                   RESULTAT=EVOL,
                   NOM_CHAM='SIGM_NOEU',
                   NOM_CMP='SIXX',
                   VALE_CALC=99.709951535332,
                   VALE_REFE=99.956599999999995,
                   CRITERE='RELATIF',
                   PRECISION=5.0000000000000001E-3,
                   MAILLE='M1',),
                _F(NUME_ORDRE=1,
                   GROUP_NO='A',
                   REFERENCE='ANALYTIQUE',
                   RESULTAT=EVOL,
                   NOM_CHAM='SIGM_NOEU',
                   NOM_CMP='SIYY',
                   VALE_CALC=-61.046833373902,
                   VALE_REFE=-59.9955,
                   CRITERE='RELATIF',
                   PRECISION=0.029999999999999999,
                   MAILLE='M1',),
                _F(NUME_ORDRE=1,
                   GROUP_NO='A',
                   REFERENCE='ANALYTIQUE',
                   RESULTAT=EVOL,
                   NOM_CHAM='SIGM_NOEU',
                   NOM_CMP='SIZZ',
                   VALE_CALC=19.523442630329,
                   VALE_REFE=19.932600000000001,
                   CRITERE='RELATIF',
                   PRECISION=0.029999999999999999,
                   MAILLE='M1',),
                _F(NUME_ORDRE=1,
                   GROUP_NO='A',
                   REFERENCE='ANALYTIQUE',
                   RESULTAT=EVOL,
                   NOM_CHAM='SIGM_NOEU',
                   NOM_CMP='SIXY',
                   VALE_CALC=1.9020962254404,
                   VALE_REFE=0.0,
                   CRITERE='ABSOLU',
                   PRECISION=3.0,
                   MAILLE='M1',),
                _F(NUME_ORDRE=1,
                   GROUP_NO='F',
                   REFERENCE='ANALYTIQUE',
                   RESULTAT=EVOL,
                   NOM_CHAM='SIGM_NOEU',
                   NOM_CMP='SIXX',
                   VALE_CALC=20.072679387765,
                   VALE_REFE=20.003,
                   CRITERE='RELATIF',
                   PRECISION=5.0000000000000001E-3,
                   MAILLE='M223',),
                _F(NUME_ORDRE=1,
                   GROUP_NO='F',
                   REFERENCE='ANALYTIQUE',
                   RESULTAT=EVOL,
                   NOM_CHAM='SIGM_NOEU',
                   NOM_CMP='SIYY',
                   VALE_CALC=19.958660286929,
                   VALE_REFE=20.003,
                   CRITERE='RELATIF',
                   PRECISION=5.0000000000000001E-3,
                   MAILLE='M223',),
                _F(NUME_ORDRE=1,
                   GROUP_NO='F',
                   REFERENCE='ANALYTIQUE',
                   RESULTAT=EVOL,
                   NOM_CHAM='SIGM_NOEU',
                   NOM_CMP='SIZZ',
                   VALE_CALC=20.00849969512,
                   VALE_REFE=20.003,
                   CRITERE='RELATIF',
                   PRECISION=5.0000000000000001E-3,
                   MAILLE='M223',),
                _F(NUME_ORDRE=1,
                   GROUP_NO='F',
                   REFERENCE='ANALYTIQUE',
                   RESULTAT=EVOL,
                   NOM_CHAM='SIGM_NOEU',
                   NOM_CMP='SIXY',
                   VALE_CALC=20.026252595452,
                   VALE_REFE=20.003,
                   CRITERE='RELATIF',
                   PRECISION=5.0000000000000001E-3,
                   MAILLE='M223',),
                ),
          )

TEST_RESU(RESU=(_F(GROUP_NO='A',
                   INST=1.0,
                   REFERENCE='ANALYTIQUE',
                   RESULTAT=EVOL,
                   NOM_CHAM='SIEQ_NOEU',
                   NOM_CMP='VMIS',
                   VALE_CALC=139.26419192233,
                   VALE_REFE=138.52260000000001,
                   CRITERE='RELATIF',
                   PRECISION=0.02,
                   MAILLE='M1',),
                _F(GROUP_NO='A',
                   INST=1.0,
                   REFERENCE='ANALYTIQUE',
                   RESULTAT=EVOL,
                   NOM_CHAM='SIEQ_NOEU',
                   NOM_CMP='TRESCA',
                   VALE_CALC=160.8071942197,
                   VALE_REFE=159.9521,
                   CRITERE='RELATIF',
                   PRECISION=0.02,
                   MAILLE='M1',),
                _F(GROUP_NO='A',
                   INST=1.0,
                   REFERENCE='ANALYTIQUE',
                   RESULTAT=EVOL,
                   NOM_CHAM='SIEQ_NOEU',
                   NOM_CMP='PRIN_1',
                   VALE_CALC=-61.072038029136,
                   VALE_REFE=-59.9955,
                   CRITERE='RELATIF',
                   PRECISION=0.029999999999999999,
                   MAILLE='M1',),
                _F(GROUP_NO='A',
                   INST=1.0,
                   REFERENCE='ANALYTIQUE',
                   RESULTAT=EVOL,
                   NOM_CHAM='SIEQ_NOEU',
                   NOM_CMP='PRIN_2',
                   VALE_CALC=19.523442630329,
                   VALE_REFE=19.932600000000001,
                   CRITERE='RELATIF',
                   PRECISION=0.029999999999999999,
                   MAILLE='M1',),
                _F(GROUP_NO='A',
                   INST=1.0,
                   REFERENCE='ANALYTIQUE',
                   RESULTAT=EVOL,
                   NOM_CHAM='SIEQ_NOEU',
                   NOM_CMP='PRIN_3',
                   VALE_CALC=99.735156190566 ,
                   VALE_REFE=99.956599999999995,
                   CRITERE='RELATIF',
                   PRECISION=0.02,
                   MAILLE='M1',),
                _F(GROUP_NO='A',
                   INST=1.0,
                   REFERENCE='ANALYTIQUE',
                   RESULTAT=EVOL,
                   NOM_CHAM='SIEQ_NOEU',
                   NOM_CMP='VMIS_SG',
                   VALE_CALC=139.26419192233,
                   VALE_REFE=138.52260000000001,
                   CRITERE='RELATIF',
                   PRECISION=0.02,
                   MAILLE='M1',),
                ),
          )

#
#  TEST SUR L'ESTIMATEUR D'ERREUR EN RESIDU

TEST_RESU(RESU=_F(INST=1.0,
                  POINT=1,
                  RESULTAT=EVOL,
                  NOM_CHAM='ERME_ELEM',
                  NOM_CMP='NUEST',
                  VALE_CALC=5.428977887088E-04,
                  TOLE_MACHINE=4.9999999999999998E-07,
                  CRITERE='RELATIF',
                  MAILLE='M2',
                  ),
          )

TEST_RESU(RESU=_F(GROUP_NO='A',
                  INST=1.0,
                  RESULTAT=EVOL,
                  NOM_CHAM='ERME_ELNO',
                  NOM_CMP='ERREST',
                  VALE_CALC=2.7480827845755E-06,
                  TOLE_MACHINE=4.9999999999999998E-07,
                  CRITERE='RELATIF',
                  MAILLE='M2',
                  ),
          )

FIN();
