# MODIF  DATE 02/02/2011   AUTEUR PELLET J.PELLET 
# TITRE VERIFICATION DE LA BONNE PRISE EN COMPTE DU CISAILLEMENT DANS LE MODELE BETON_UMLV_FP
# ssnv181a.para = tps_job 60 mem_job 32Mo ncpus 1 liste_test S
#            CONFIGURATION MANAGEMENT OF EDF VERSION
# ======================================================================
# COPYRIGHT (C) 1991 - 2011  EDF R&D                  WWW.CODE-ASTER.ORG
# THIS PROGRAM IS FREE SOFTWARE; YOU CAN REDISTRIBUTE IT AND/OR MODIFY
# IT UNDER THE TERMS OF THE GNU GENERAL PUBLIC LICENSE AS PUBLISHED BY
# THE FREE SOFTWARE FOUNDATION; EITHER VERSION 2 OF THE LICENSE, OR
# (AT YOUR OPTION) ANY LATER VERSION.
#
# THIS PROGRAM IS DISTRIBUTED IN THE HOPE THAT IT WILL BE USEFUL, BUT
# WITHOUT ANY WARRANTY; WITHOUT EVEN THE IMPLIED WARRANTY OF
# MERCHANTABILITY OR FITNESS FOR A PARTICULAR PURPOSE. SEE THE GNU
# GENERAL PUBLIC LICENSE FOR MORE DETAILS.
#
# YOU SHOULD HAVE RECEIVED A COPY OF THE GNU GENERAL PUBLIC LICENSE
# ALONG WITH THIS PROGRAM; IF NOT, WRITE TO EDF R&D CODE_ASTER,
#    1 AVENUE DU GENERAL DE GAULLE, 92141 CLAMART CEDEX, FRANCE.
# ======================================================================

DEBUT(CODE=_F(NOM='SSNV181A', NIV_PUB_WEB='INTERNET'), DEBUG=_F(SDVERI='OUI'))

PRE_GIBI();

M=LIRE_MAILLAGE();

MO=AFFE_MODELE(MAILLAGE=M,
               AFFE=_F(TOUT='OUI',
                       PHENOMENE='MECANIQUE',
                       MODELISATION='3D',),);

FONC1=DEFI_FONCTION(NOM_PARA='SECH',
                    VALE=(0.0,0.0,100.0,1.0,),
                    PROL_DROITE='LINEAIRE',
                    PROL_GAUCHE='LINEAIRE',);

E=DEFI_FONCTION(NOM_PARA='TEMP',
                VALE=(0.0,31000.0,1.0,31000.0,),
                PROL_DROITE='LINEAIRE',
                PROL_GAUCHE='LINEAIRE',);

NU=DEFI_FONCTION(NOM_PARA='TEMP',
                 VALE=(0.0,0.2,1.0,0.2,),
                 PROL_DROITE='LINEAIRE',
                 PROL_GAUCHE='LINEAIRE',);

ALPHA= DEFI_CONSTANTE(VALE=0.);

BETON=DEFI_MATERIAU(ELAS_FO=_F(E=E,
                               NU=NU,
                           FONC_DESORP=FONC1,ALPHA=ALPHA,
                           TEMP_DEF_ALPHA=0.),
                    BETON_UMLV_FP=_F(K_RS=120000.0,
                                     ETA_RS=22100000000.0,
                                     K_IS=62200.0,
                                     ETA_IS=41600000000.0,
                                     K_RD=38600.0,
                                     ETA_RD=61900000000.0,
                                     ETA_ID=1.64e+12,),);
SECH0=CREA_CHAMP(TYPE_CHAM='NOEU_TEMP_R',
                 OPERATION='AFFE',
                 MAILLAGE=M,
                 AFFE=_F(TOUT='OUI',
                         NOM_CMP='TEMP',
                         VALE=100.0,),);


SECHI=CREA_CHAMP(TYPE_CHAM='NOEU_TEMP_R',
                 OPERATION='AFFE',
                 MAILLAGE=M,
                 AFFE=_F(TOUT='OUI',
                         NOM_CMP='TEMP',
                         VALE=100.0,),);

SECHF=CREA_CHAMP(TYPE_CHAM='NOEU_TEMP_R',
                 OPERATION='AFFE',
                 MAILLAGE=M,
                 AFFE=_F(TOUT='OUI',
                         NOM_CMP='TEMP',
                         VALE=100.0,),);

SECH1=CREA_RESU(OPERATION='AFFE',
                TYPE_RESU='EVOL_THER',
                NOM_CHAM='TEMP',
                AFFE=(
                _F(CHAM_GD=SECH0,
                   INST=-1.0,),
                _F(CHAM_GD=SECHI,
                   INST=0.0,),
                _F(CHAM_GD=SECHF,
                   INST=64800000.0,),),);

TEMP=CREA_CHAMP(TYPE_CHAM='NOEU_TEMP_R',
                OPERATION='AFFE',
                MAILLAGE=M,
                AFFE=_F(TOUT='OUI',
                        NOM_CMP='TEMP',
                        VALE=20.0,),);

CM=AFFE_MATERIAU(MAILLAGE=M,
                 AFFE=_F(TOUT='OUI',
                         MATER=BETON,),
                 AFFE_VARC=(_F(TOUT='OUI',EVOL=SECH1,NOM_VARC="SECH",NOM_CHAM='TEMP',VALE_REF=100),
                            _F(TOUT='OUI',CHAMP_GD=TEMP,NOM_VARC="TEMP",VALE_REF=20.),),
                 );

#CH3=AFFE_CHAR_MECA(MODELE=MO, TEMP_CALCULEE=TEMP);

FORCE=DEFI_FONCTION(NOM_PARA='INST',
                    VALE=(0.0,0.0,1.0,10.0,64800000.0,10.0,),
                    PROL_DROITE='LINEAIRE',
                    PROL_GAUCHE='LINEAIRE',);

CH10=AFFE_CHAR_MECA(MODELE=MO,
                    DDL_IMPO=_F(GROUP_NO=('P1','P2','P3','P4'),
                                DX=0.0,
                                DY=0.0,
                                DZ=0.0,),);


CH12=AFFE_CHAR_MECA(MODELE=MO,
                    DDL_IMPO=_F(GROUP_NO=('P5','P6','P7','P8'),
                                DY=0.0,
                                DZ=0.0,),
                    LIAISON_UNIF=_F(GROUP_NO=('P5','P6','P7','P8'),
                                    DDL='DX',),);

CH13=AFFE_CHAR_MECA_F(MODELE=MO,
                      FORCE_NODALE=_F(GROUP_NO = 'P8',
                                      FX = FORCE),);


L_INST=DEFI_LIST_REEL(DEBUT=-1.0,
                      INTERVALLE=(_F(JUSQU_A=1.0,
                                     NOMBRE=2,),
                                  _F(JUSQU_A=64800.0,
                                     NOMBRE=2,),
                                  _F(JUSQU_A=648000.0,
                                     NOMBRE=2,),
                                  _F(JUSQU_A=6480000.0,
                                     NOMBRE=2,),
                                  _F(JUSQU_A=64800000.0,
                                     NOMBRE=2,),),);

U=STAT_NON_LINE(MODELE=MO,
                CHAM_MATER=CM,
                EXCIT=(_F(CHARGE=CH10,),
                       _F(CHARGE=CH12,),
                       _F(CHARGE=CH13,),),
                COMP_INCR=_F(RELATION='BETON_UMLV_FP',
                             ITER_INTE_MAXI=1000,),
                INCREMENT=_F(LIST_INST=L_INST,),
                NEWTON=_F(PREDICTION='ELASTIQUE',
                          MATRICE='TANGENTE',
                          REAC_ITER=1,),
                CONVERGENCE=_F(RESI_GLOB_MAXI=1e-08,
                               ITER_GLOB_MAXI=25),);

U=CALC_ELEM(reuse =U,


            RESULTAT=U,
            OPTION=('SIEF_ELNO','EPSI_ELNO',),);

TEST_RESU(RESU=(
      _F( RESULTAT = U,
          NOM_CHAM = 'EPSI_ELNO',
          MAILLE = 'M1',
          NOEUD = 'N6',
          INST = 64800.,
          NOM_CMP = 'EPXZ',
          VALE = +3.975E-04,
          PRECISION = 0.005,
          REFERENCE = 'ANALYTIQUE'),
      _F( RESULTAT = U,
          NOM_CHAM = 'EPSI_ELNO',
          MAILLE = 'M1',
          NOEUD = 'N6',
          INST = 648000.,
          NOM_CMP = 'EPXZ',
          VALE =+4.770E-04,
          PRECISION = 0.005,
          REFERENCE = 'ANALYTIQUE'),
      _F( RESULTAT = U,
          NOM_CHAM = 'EPSI_ELNO',
          MAILLE = 'M1',
          NOEUD = 'N6',
          INST = 6480000.,
          NOM_CMP = 'EPXZ',
          VALE = +6.811E-04,
          PRECISION = 0.005,
          REFERENCE = 'ANALYTIQUE'),
      _F( RESULTAT = U,
          NOM_CHAM = 'EPSI_ELNO',
          MAILLE = 'M1',
          NOEUD = 'N6',
          INST = 64800000.,
          NOM_CMP = 'EPXZ',
          VALE = +1.0413E-03,
          PRECISION = 0.005,
          REFERENCE = 'ANALYTIQUE'),),);

FIN();
#
