# MODIF  DATE 20/10/2011   AUTEUR SELLENET N.SELLENET 
# TITRE INDENTATION ELASTOPLASTIQUE D'UN DEMI-PLAN
#  PAR UN INDENTEUR SPHERIQUE ELASTIQUE
# ssnv506d.para = tps_job 580 mem_job 256Mo ncpus 1 liste_test V
#            CONFIGURATION MANAGEMENT OF EDF VERSION
# ======================================================================
# COPYRIGHT (C) 1991 - 2011  EDF R&D                  WWW.CODE-ASTER.ORG
# THIS PROGRAM IS FREE SOFTWARE; YOU CAN REDISTRIBUTE IT AND/OR MODIFY
# IT UNDER THE TERMS OF THE GNU GENERAL PUBLIC LICENSE AS PUBLISHED BY
# THE FREE SOFTWARE FOUNDATION; EITHER VERSION 2 OF THE LICENSE, OR
# (AT YOUR OPTION) ANY LATER VERSION.
#
# THIS PROGRAM IS DISTRIBUTED IN THE HOPE THAT IT WILL BE USEFUL, BUT
# WITHOUT ANY WARRANTY; WITHOUT EVEN THE IMPLIED WARRANTY OF
# MERCHANTABILITY OR FITNESS FOR A PARTICULAR PURPOSE. SEE THE GNU
# GENERAL PUBLIC LICENSE FOR MORE DETAILS.
#
# YOU SHOULD HAVE RECEIVED A COPY OF THE GNU GENERAL PUBLIC LICENSE
# ALONG WITH THIS PROGRAM; IF NOT, WRITE TO EDF R&D CODE_ASTER,
#    1 AVENUE DU GENERAL DE GAULLE, 92141 CLAMART CEDEX, FRANCE.
# ======================================================================
# CAS TEST  SSNV506D
#  MAILLAGE EN MM
#  METHODE DES CONTRAINTES ACTIVES EN 3D
# SPHERE RIGIDE MODELISER UNIQUEMENT PAR LA SURFACE DE CONTACT


DEBUT(CODE=_F(NOM='SSNV506D',NIV_PUB_WEB='INTERNET'),);

#-------------------------------------------------------------------
#                      LECTURE MAILLAGE SSNV506D.MGIB
#-------------------------------------------------------------------

SSNV506D=LIRE_MAILLAGE(FORMAT='MED',INFO=1,);

#--------------------------------------------------------------------
#                     DEFINITION DU MODELE
#--------------------------------------------------------------------

SSNV506D=DEFI_GROUP(reuse =SSNV506D,
                    MAILLAGE=SSNV506D,
                    CREA_GROUP_NO=(_F(TOUT_GROUP_MA='OUI',), ),);

MO=AFFE_MODELE(MAILLAGE=SSNV506D,
               AFFE=_F(TOUT='OUI',
                       #GROUP_MA=('BATI','SPHSUP'),
                       PHENOMENE='MECANIQUE',
                       MODELISATION='3D',),);

# REORENTATION DES NORMALES DES SURFACES DE CONTACT
SSNV506D=MODI_MAILLAGE(reuse =SSNV506D,
                       MAILLAGE=SSNV506D,
                       ORIE_PEAU_3D=_F(GROUP_MA=('SMAI','SESC'),),
                       INFO=1,);

#----------------------------------------------------------------------
#                      DEFINITION DES MATERIAUX
#----------------------------------------------------------------------

MSPH=DEFI_MATERIAU(ELAS=_F(E=21000000,
                           NU=0.29999999999999999,),);

MBATI=DEFI_MATERIAU(ELAS=_F(E=210000,
                            NU=0.29999999999999999,),
                    ECRO_LINE=_F(D_SIGM_EPSI=0.0,
                                 SY=50.0,),);

CHMAT=AFFE_MATERIAU(MAILLAGE=SSNV506D,
                    AFFE=(_F(GROUP_MA='SPHSUP',
                             MATER=MSPH,),
                          _F(GROUP_MA='BATI',
                             MATER=MBATI,),),);

#----------------------------------------------------------------------
#              DEFINITION DES PARAMETRES DE CHARGEMENT
#----------------------------------------------------------------------

RAMPE=DEFI_FONCTION(NOM_PARA='INST',
                    VALE=(0.0,0.0,
                          1.0,1.0,),
                    PROL_DROITE='LINEAIRE',
                    PROL_GAUCHE='LINEAIRE',);

LINST=DEFI_LIST_REEL(DEBUT=0.0,
                     INTERVALLE=(_F(JUSQU_A=0.01,
                                    NOMBRE=2,),
                                 _F(JUSQU_A=0.1,
                                    NOMBRE=9,),
                                 _F(JUSQU_A=1.0,
                                    NOMBRE=18,),),);

#---------------------------------------------------------------------
#              AFFECTATION DES CONDITIONS AUX LIMITES
#                     ET DU DEPLACEMENT IMPOSE
#---------------------------------------------------------------------

DPLIMPO=AFFE_CHAR_MECA(MODELE=MO,
                       DDL_IMPO=(_F(GROUP_NO='CHIMPO',
                                    DY=-100.,),
                                 _F(GROUP_NO='BASE',
                                    DX=0.,DY=0.,DZ=0.,),
                                 _F(GROUP_NO=('SBYZ','SSYZ'),
                                    DX=0.,),
                                 _F(GROUP_NO=('SBXY','SSXY'),
                                    DZ=0.,),),
                       LIAISON_DDL=_F(GROUP_NO=('S','E'),
                                      DDL=('DY','DY'),
                                      COEF_MULT=(1.0,-1.0),
                                      COEF_IMPO=0.,),);

CONT = DEFI_CONTACT(MODELE=MO,
                    FORMULATION='DISCRETE',

                    ZONE=_F(
                      GROUP_MA_MAIT='SMAI',
                      GROUP_MA_ESCL='SESC',
                      SANS_GROUP_NO=('E','S'),

                    ),
                    )


#----------------------------------------------------------------------
#                         RESOLUTION
#----------------------------------------------------------------------

DEFLIST =DEFI_LIST_INST(DEFI_LIST=_F(LIST_INST = LINST),
                        ECHEC=_F(ACTION        = 'DECOUPE',
                                 SUBD_METHODE  = 'MANUEL',
                                 SUBD_PAS=4,
                                 SUBD_PAS_MINI=9.9999999999999995E-07,),)

SSNV506=STAT_NON_LINE(SOLVEUR=_F(SYME='OUI',),
                      MODELE=MO,
                       CHAM_MATER=CHMAT,
                       CONTACT = CONT,
                       EXCIT=(_F(CHARGE=DPLIMPO,
                                 FONC_MULT=RAMPE,),
                              ),
                       COMP_INCR=_F(RELATION='VMIS_ISOT_LINE',
                                    GROUP_MA='BATI'),
                       COMP_ELAS=_F(RELATION='ELAS',
                                    GROUP_MA='SPHSUP',),
                       INCREMENT=_F(LIST_INST=DEFLIST,
                                    #INST_FIN=0.1,
                                    INST_FIN=1.0,),
                       NEWTON=_F(MATRICE='TANGENTE',
                                 REAC_ITER=1,
                                 ),
                       CONVERGENCE=_F(RESI_GLOB_RELA=9.9999999999999995E-07,
                                      ITER_GLOB_MAXI=15,
                                      ARRET='OUI',),
                       INFO=1,);

#----------------------------------------------------------------------
#                         POST TRAITEMENT
#----------------------------------------------------------------------

SSNV506=CALC_NO(reuse =SSNV506,
                 RESULTAT=SSNV506,
                 OPTION='REAC_NODA',
                 );

TAB_REAC=POST_RELEVE_T(ACTION=_F(INTITULE='FORCE',
                                 GROUP_NO='SESC',
                                 RESULTAT=SSNV506,
                                 NOM_CHAM='REAC_NODA',
                                 LIST_INST=LINST,
                                 RESULTANTE='DY',
                                 OPERATION = 'EXTRACTION'),);

IMPR_TABLE(TABLE=TAB_REAC,
           FORMAT='TABLEAU',);

#----------------------------------------------------------------------
#                   TESTS DES RESULTATS
#----------------------------------------------------------------------
# TESTS SUR DES VALEURS ANALYTIQUES
TEST_TABLE(TABLE=TAB_REAC,
           NOM_PARA='DY',
           FILTRE=_F(NOM_PARA='INST',
                     VALE=0.2),
           VALE=-3.201351E+06,
           PRECISION=0.25,
           REFERENCE='SOURCE_EXTERNE',);

TEST_TABLE(TABLE=TAB_REAC,
           NOM_PARA='DY',
           FILTRE=_F(NOM_PARA='INST',
                     VALE=0.4),
           VALE=-6.402702E+06,
           PRECISION=0.20,
           REFERENCE='SOURCE_EXTERNE',);

TEST_TABLE(TABLE=TAB_REAC,
           NOM_PARA='DY',
           FILTRE=_F(NOM_PARA='INST',
                     VALE=0.6),
           VALE=-9.604053E+06,
           PRECISION=0.15,
           REFERENCE='SOURCE_EXTERNE',);

TEST_TABLE(TABLE=TAB_REAC,
           NOM_PARA='DY',
           FILTRE=_F(NOM_PARA='INST',
                     VALE=0.8),
           VALE=-1.280540E+07,
           PRECISION=0.10,
           REFERENCE='SOURCE_EXTERNE',);

TEST_TABLE(TABLE=TAB_REAC,
           NOM_PARA='DY',
           FILTRE=_F(NOM_PARA='INST',
                     VALE=1.0),
           VALE=-1.600675E+07,
           PRECISION=0.05,
           REFERENCE='SOURCE_EXTERNE',);


# TESTS DE NON REGRESSION SUR LES VALEURS
TEST_TABLE(TABLE=TAB_REAC,
           NOM_PARA='DY',
           FILTRE=_F(NOM_PARA='INST',
                     VALE=0.2),
           VALE=-3.8282872460963E+06,
           VERSION='9.2.18',
           REFERENCE='NON_REGRESSION',);

TEST_TABLE(TABLE=TAB_REAC,
           NOM_PARA='DY',
           FILTRE=_F(NOM_PARA='INST',
                     VALE=0.4),
           VALE=-7.3894284378761E+06,
           VERSION='9.2.18',
           REFERENCE='NON_REGRESSION',);

TEST_TABLE(TABLE=TAB_REAC,
           NOM_PARA='DY',
           FILTRE=_F(NOM_PARA='INST',
                     VALE=0.6),
           VALE=-1.0642071353912E+07,
           VERSION='9.2.18',
           REFERENCE='NON_REGRESSION',);

TEST_TABLE(TABLE=TAB_REAC,
           NOM_PARA='DY',
           FILTRE=_F(NOM_PARA='INST',
                     VALE=0.8),
           VALE=-1.2891299266210E+07,
           VERSION='9.2.18',
           REFERENCE='NON_REGRESSION',);

TEST_TABLE(TABLE=TAB_REAC,
           NOM_PARA='DY',
           FILTRE=_F(NOM_PARA='INST',
                     VALE=1.0),
           VALE=-1.5637645609981E+07,
           VERSION='9.2.18',
           REFERENCE='NON_REGRESSION',);



FIN();
