# MODIF  DATE 07/06/2002   AUTEUR DURAND C.DURAND 
# TITRE TEST DE LA COMMANDE POST_SIMPLIFIE
#            CONFIGURATION MANAGEMENT OF EDF VERSION
# ======================================================================
# COPYRIGHT (C) 1991 - 2001  EDF R&D                  WWW.CODE-ASTER.ORG
# THIS PROGRAM IS FREE SOFTWARE; YOU CAN REDISTRIBUTE IT AND/OR MODIFY
# IT UNDER THE TERMS OF THE GNU GENERAL PUBLIC LICENSE AS PUBLISHED BY
# THE FREE SOFTWARE FOUNDATION; EITHER VERSION 2 OF THE LICENSE, OR   
# (AT YOUR OPTION) ANY LATER VERSION.                                 
#
# THIS PROGRAM IS DISTRIBUTED IN THE HOPE THAT IT WILL BE USEFUL, BUT 
# WITHOUT ANY WARRANTY; WITHOUT EVEN THE IMPLIED WARRANTY OF          
# MERCHANTABILITY OR FITNESS FOR A PARTICULAR PURPOSE. SEE THE GNU    
# GENERAL PUBLIC LICENSE FOR MORE DETAILS.                            
#
# YOU SHOULD HAVE RECEIVED A COPY OF THE GNU GENERAL PUBLIC LICENSE   
# ALONG WITH THIS PROGRAM; IF NOT, WRITE TO EDF R&D CODE_ASTER,       
#    1 AVENUE DU GENERAL DE GAULLE, 92141 CLAMART CEDEX, FRANCE.      
# ======================================================================

DEBUT(  CODE=_F(  NOM = 'SSNX100A',NIV_PUB_WEB='INTERNET') )

FCT=DEFI_FONCTION( 
             NOM_PARA='EPSI',
                 VALE=( 0.0002557,   50.,
                        0.0005115,  100.,
                        0.0007675,  150.,
                        0.001,      177.,
                        0.00141,    188.,
                        0.002,      197.,
                        0.00303,    201.,
                        0.00503,    202.,
                        0.00709,    214.,
                        0.00920,    236.,
                        0.011,      248.,
                        0.020,      304.,
                        0.030,      340.,
                        0.040,      371.,
                        0.050,      396.,
                        0.060,      416.,
                        0.070,      432.,
                        0.080,      446.,
                        0.090,      458.,
                        0.100,      470.,
                        0.120,      488.,
                        0.140,      504., ),
         PROL_GAUCHE='EXCLU',
          PROL_DROITE='EXCLU'
                    )

MATER=DEFI_MATERIAU( 
                   ELAS=_F(      E = 195500.,
                             NU = 0.3),
               TRACTION=_F(   SIGM = FCT),
                  RCCM=_F(   SY_02 = 201.,
                          SU = 440.,
                          SH = 103.)
                      )

TABLE=POST_SIMPLIFIE( 
                 MATER=MATER,
              DEF_EQUI=_F( 
                         EPAIS = 65.,
                         LONG_FISS = 16.,
                         LONG_LIGA_INT = 22.,
                         DEXT = 730.)
                   )

TEST_TABLE(   TABLE=TABLE,
                 FILTRE=_F( NOM_PARA = 'LONG_FISS_MAXI',
                         VALE = 1.52E+01,
                         PRECISION = 1.),
                NOM_PARA='LONG_FISS_MAXI',
                    VALE=1.464E+01, 
               PRECISION=4.E-02
           )

FIN( )
#
#
