# MODIF  DATE 30/07/2012   AUTEUR LEFEBVRE J-P.LEFEBVRE 
# TITRE CALCUL DU DOMMAGE / METHODE RAINFLOW
# szlz101a.para = tps_job 60 mem_job 256Mo ncpus 1 liste_test R
#            CONFIGURATION MANAGEMENT OF EDF VERSION
# ======================================================================
# COPYRIGHT (C) 1991 - 2012  EDF R&D                  WWW.CODE-ASTER.ORG
# THIS PROGRAM IS FREE SOFTWARE; YOU CAN REDISTRIBUTE IT AND/OR MODIFY
# IT UNDER THE TERMS OF THE GNU GENERAL PUBLIC LICENSE AS PUBLISHED BY
# THE FREE SOFTWARE FOUNDATION; EITHER VERSION 2 OF THE LICENSE, OR
# (AT YOUR OPTION) ANY LATER VERSION.
#
# THIS PROGRAM IS DISTRIBUTED IN THE HOPE THAT IT WILL BE USEFUL, BUT
# WITHOUT ANY WARRANTY; WITHOUT EVEN THE IMPLIED WARRANTY OF
# MERCHANTABILITY OR FITNESS FOR A PARTICULAR PURPOSE. SEE THE GNU
# GENERAL PUBLIC LICENSE FOR MORE DETAILS.
#
# YOU SHOULD HAVE RECEIVED A COPY OF THE GNU GENERAL PUBLIC LICENSE
# ALONG WITH THIS PROGRAM; IF NOT, WRITE TO EDF R&D CODE_ASTER,
#    1 AVENUE DU GENERAL DE GAULLE, 92141 CLAMART CEDEX, FRANCE.
# ======================================================================
#CAS TEST DOM4 DU MANUEL DE VALIDATION DE POSTDAM VERSION 1.0
#
DEBUT(CODE=_F(NOM='SZLZ101A', NIV_PUB_WEB='INTERNET'), DEBUG=_F(SDVERI='OUI'))

TAUN=DEFI_FONCTION(   NOM_PARA='INST',
                        VALE=(   0.,      0.,
                                 1.,   1000.,
                                 2.,      0.,  )  )

MAT1=DEFI_MATERIAU(       ELAS=_F(  E = 200000.,
                                    NU = 0.3),
                          FATIGUE=_F(  A0 = 55.81,
                                    A1 = -43.06,
                                    A2 = 11.91,
                                    A3 = -1.16,
                                    E_REFE = 200000.,
                                    SL = 180.),
                             RCCM=_F(  N_KE = 0.3,
                                    M_KE = 1.7,
                                    SM = 126.)  )

TAB_1=POST_FATIGUE(    CHARGEMENT='UNIAXIAL',
                         HISTOIRE=_F(  SIGM = TAUN),
                         COMPTAGE='RAINFLOW',
                          DOMMAGE='WOHLER',
                            MATER=MAT1,
                            CUMUL='LINEAIRE',
                              INFO=2                 )

TEST_TABLE(        TABLE=TAB_1,
                   FILTRE=_F(  NOM_PARA = 'CYCLE',
                            VALE_I = 1),
                 NOM_PARA='VALE_MAX',
                     VALE=1000.,
                PRECISION=1.E-5                )

TEST_TABLE(        TABLE=TAB_1,
                   FILTRE=_F(  NOM_PARA = 'CYCLE',
                            VALE_I = 1),
                 NOM_PARA='VALE_MIN',
                     VALE=0.,
                  CRITERE='ABSOLU',
                PRECISION=1.E-5                )

TEST_TABLE(        TABLE=TAB_1,
                   FILTRE=_F(  NOM_PARA = 'CYCLE',
                            VALE_I = 1),
                 NOM_PARA='DOMMAGE',
                     VALE=2.858503E-4,
                PRECISION=1.E-5                )

TEST_TABLE(        TABLE=TAB_1,
                 NOM_PARA='DOMM_CUMU',
                     VALE=2.858503E-4,
                PRECISION=1.E-5                )

#-----------------------------------------------------------------------
TAB_2=POST_FATIGUE(      CHARGEMENT='UNIAXIAL',
                           HISTOIRE=_F(  SIGM = TAUN),
                           COMPTAGE='RAINFLOW',
                            DOMMAGE='WOHLER',
                            CORR_KE='RCCM',
                              MATER=MAT1,
                              CUMUL='LINEAIRE',
                               INFO=2                 )

TEST_TABLE(        TABLE=TAB_2,
                   FILTRE=_F(  NOM_PARA = 'CYCLE',
                            VALE_I = 1),
                 NOM_PARA='VALE_MAX',
                     VALE=1000.,
                PRECISION=1.E-5               )

TEST_TABLE(        TABLE=TAB_2,
                   FILTRE=_F(  NOM_PARA = 'CYCLE',
                            VALE_I = 1),
                 NOM_PARA='VALE_MIN',
                     VALE=0.,
                  CRITERE='ABSOLU',
                PRECISION=1.E-5                )

TEST_TABLE(        TABLE=TAB_2,
                   FILTRE=_F(  NOM_PARA = 'CYCLE',
                            VALE_I = 1),
                 NOM_PARA='DOMMAGE',
                     VALE=1.224941E-2,
                PRECISION=1.E-5                )

TEST_TABLE(        TABLE=TAB_2,
                 NOM_PARA='DOMM_CUMU',
                     VALE=1.224941E-2,
                PRECISION=1.E-5                )

#-----------------------------------------------------------------------
MAT2=DEFI_MATERIAU(    FATIGUE=_F(  A_BASQUIN = 1.001730939E-14,
                                    BETA_BASQUIN = 4.065) )

TAB_3=POST_FATIGUE(      CHARGEMENT='UNIAXIAL',
                           HISTOIRE=_F(  SIGM = TAUN),
                           COMPTAGE='RAINFLOW',
                            DOMMAGE='WOHLER',
                               MATER=MAT2,
                              CUMUL='LINEAIRE',
                               INFO=1                )

TEST_TABLE(        TABLE=TAB_3,
                   FILTRE=_F(  NOM_PARA = 'CYCLE',
                            VALE_I = 1),
                 NOM_PARA='VALE_MAX',
                     VALE=1000.,
                PRECISION=1.E-5               )

TEST_TABLE(        TABLE=TAB_3,
                   FILTRE=_F(  NOM_PARA = 'CYCLE',
                            VALE_I = 1),
                 NOM_PARA='VALE_MIN',
                     VALE=0.,
                  CRITERE='ABSOLU',
                PRECISION=1.E-5                )

TEST_TABLE(        TABLE=TAB_3,
                   FILTRE=_F(  NOM_PARA = 'CYCLE',
                            VALE_I = 1),
                 NOM_PARA='DOMMAGE',
                     VALE=9.377005E-4,
                PRECISION=1.E-5                )

TEST_TABLE(        TABLE=TAB_3,
                 NOM_PARA='DOMM_CUMU',
                     VALE=9.377005E-4,
                PRECISION=1.E-5                )

FIN( )
#
