# MODIF  DATE 10/10/2012   AUTEUR COURTOIS M.COURTOIS 
# TITRE  DOMMAGE DE LEMAITRE
# szlz109a.para = tps_job 60 mem_job 256Mo ncpus 1 liste_test R
#            CONFIGURATION MANAGEMENT OF EDF VERSION
# ======================================================================
# COPYRIGHT (C) 1991 - 2012  EDF R&D                  WWW.CODE-ASTER.ORG
# THIS PROGRAM IS FREE SOFTWARE; YOU CAN REDISTRIBUTE IT AND/OR MODIFY
# IT UNDER THE TERMS OF THE GNU GENERAL PUBLIC LICENSE AS PUBLISHED BY
# THE FREE SOFTWARE FOUNDATION; EITHER VERSION 2 OF THE LICENSE, OR
# (AT YOUR OPTION) ANY LATER VERSION.
#
# THIS PROGRAM IS DISTRIBUTED IN THE HOPE THAT IT WILL BE USEFUL, BUT
# WITHOUT ANY WARRANTY; WITHOUT EVEN THE IMPLIED WARRANTY OF
# MERCHANTABILITY OR FITNESS FOR A PARTICULAR PURPOSE. SEE THE GNU
# GENERAL PUBLIC LICENSE FOR MORE DETAILS.
#
# YOU SHOULD HAVE RECEIVED A COPY OF THE GNU GENERAL PUBLIC LICENSE
# ALONG WITH THIS PROGRAM; IF NOT, WRITE TO EDF R&D CODE_ASTER,
#    1 AVENUE DU GENERAL DE GAULLE, 92141 CLAMART CEDEX, FRANCE.
# ======================================================================
#
DEBUT(  CODE=_F(  NOM = 'SZLZ109A',NIV_PUB_WEB='INTERNET'),DEBUG=_F(SDVERI='OUI'))

TAUN1=DEFI_FONCTION(    NOM_PARA='INST',
                           VALE=(    43.11,         300.,
                                    100.,           300.,
                                   1000.,           300.,
                                  10000.,           300.,
                                  20000.,           300.,
                                  21000.,           300.,
                                  22000.,           300.,
                                  22200.,           300.,
                                  22400.,           300.,   )  )

TAUN2=DEFI_FONCTION(    NOM_PARA='INST',
                           VALE=(   43.11,          0.,
                                   100.,            0.,
                                  1000.,            0.,
                                 10000.,            0.,
                                 20000.,            0.,
                                 21000.,            0.,
                                 22000.,            0.,
                                 22200.,            0.,
                                 22400.,            0.,   )  )

T_EPSP=DEFI_FONCTION(    NOM_PARA='INST',
                            VALE=(  43.11,          0.019996,
                                   100.,            0.046384,
                                  1000.,            0.46384,
                                 10000.,            4.6384,
                                 20000.,            9.2768,
                                 21000.,            9.74064,
                                 22000.,           10.20448,
                                 22200.,           10.297248,
                                 22400.,           10.390016,   )  )

T_TEMP=DEFI_FONCTION(    NOM_PARA='INST',
                            VALE=(  43.11,         20.,
                                   100.,           20.,
                                  1000.,           20.,
                                 10000.,           20.,
                                 20000.,           20.,
                                 21000.,           20.,
                                 22000.,           20.,
                                 22200.,           20.,
                                 22400.,           20.,   )  )

T_E=DEFI_FONCTION(       NOM_PARA='TEMP',
                            PROL_DROITE='CONSTANT',
                           PROL_GAUCHE='CONSTANT',
                           VALE=(  20.,     2.E+5, )    )

T_NU=DEFI_FONCTION(       NOM_PARA='TEMP',
                            PROL_DROITE='CONSTANT',
                           PROL_GAUCHE='CONSTANT',
                           VALE=(  20.,     0.,    )    )

T_S=DEFI_FONCTION(       NOM_PARA='TEMP',
                            PROL_DROITE='CONSTANT',
                           PROL_GAUCHE='CONSTANT',
                           VALE=(  20.,     7.,    )    )

EPSP_S=DEFI_FONCTION(NOM_PARA='TEMP',
                     PROL_DROITE='CONSTANT',
                     PROL_GAUCHE='CONSTANT',
                     VALE=(  20.,     0.02,    )    )

MAT1=DEFI_MATERIAU(           ELAS_FO=_F(  E = T_E,
                                          NU = T_NU),
                         DOMMA_LEMAITRE=_F(  S = T_S,
                                          EPSP_SEUIL = EPSP_S)
                                          )

#
#-----------------------------------------------------------------------
TAB_1=POST_FATIGUE(     CHARGEMENT='QUELCONQUE',
                          HISTOIRE=_F(  SIGM_XX = TAUN1,
                                        SIGM_YY = TAUN2,
                                        SIGM_ZZ = TAUN2,
                                        SIGM_XY = TAUN2,
                                        SIGM_XZ = TAUN2,
                                        SIGM_YZ = TAUN2,
                                        EPSP = T_EPSP,
                                        TEMP = T_TEMP),
                             MATER=MAT1,
                           DOMMAGE='LEMAITRE',
                             CUMUL='LINEAIRE'           )

TEST_TABLE(CRITERE='ABSOLU',
           VALE_CALC=0.0,
           TOLE_MACHINE=1.0000000000000001E-05,
           NOM_PARA='DOMMAGE',
           TABLE=TAB_1,
           FILTRE=_F(NOM_PARA='INST',
                     VALE=43.109999999999999,),
           )

TEST_TABLE(
           VALE_CALC=8.4890699999999998E-4,
           TOLE_MACHINE=1.0000000000000001E-05,
           NOM_PARA='DOMMAGE',
           TABLE=TAB_1,
           FILTRE=_F(NOM_PARA='INST',
                     VALE=100.0,),
           )

TEST_TABLE(
           VALE_CALC=0.014474925,
           TOLE_MACHINE=1.0000000000000001E-05,
           NOM_PARA='DOMMAGE',
           TABLE=TAB_1,
           FILTRE=_F(NOM_PARA='INST',
                     VALE=1000.0,),
           )

TEST_TABLE(
           VALE_CALC=0.17837423799999999,
           TOLE_MACHINE=1.0000000000000001E-05,
           NOM_PARA='DOMMAGE',
           TABLE=TAB_1,
           FILTRE=_F(NOM_PARA='INST',
                     VALE=1.E4,),
           )

TEST_TABLE(
           VALE_CALC=0.52469300500000005,
           TOLE_MACHINE=1.0000000000000001E-05,
           NOM_PARA='DOMMAGE',
           TABLE=TAB_1,
           FILTRE=_F(NOM_PARA='INST',
                     VALE=2.E4,),
           )

TEST_TABLE(
           VALE_CALC=0.60282746899999995,
           TOLE_MACHINE=1.0000000000000001E-05,
           NOM_PARA='DOMMAGE',
           TABLE=TAB_1,
           FILTRE=_F(NOM_PARA='INST',
                     VALE=2.1000E4,),
           )

TEST_TABLE(
           VALE_CALC=0.73829051999999995,
           TOLE_MACHINE=1.0000000000000001E-05,
           NOM_PARA='DOMMAGE',
           TABLE=TAB_1,
           FILTRE=_F(NOM_PARA='INST',
                     VALE=2.2000E4,),
           )

TEST_TABLE(
           VALE_CALC=0.79214980700000004,
           TOLE_MACHINE=1.0000000000000001E-05,
           NOM_PARA='DOMMAGE',
           TABLE=TAB_1,
           FILTRE=_F(NOM_PARA='INST',
                     VALE=2.2200E4,),
           )

TEST_TABLE(
           VALE_CALC=0.96760435099999997,
           TOLE_MACHINE=8.0000000000000007E-05,
           NOM_PARA='DOMMAGE',
           TABLE=TAB_1,
           FILTRE=_F(NOM_PARA='INST',
                     VALE=2.2400E4,),
           )

FIN()
#
