#
# TITRE CRITERES EN FORMULE POUR POST_FATIGUE AMPLITUDE CONSTANTE
# ======================================================================
# COPYRIGHT (C) 1991 - 2013  EDF R&D                  WWW.CODE-ASTER.ORG
# THIS PROGRAM IS FREE SOFTWARE; YOU CAN REDISTRIBUTE IT AND/OR MODIFY  
# IT UNDER THE TERMS OF THE GNU GENERAL PUBLIC LICENSE AS PUBLISHED BY  
# THE FREE SOFTWARE FOUNDATION; EITHER VERSION 2 OF THE LICENSE, OR     
# (AT YOUR OPTION) ANY LATER VERSION.                                                    
#                                                                       
# THIS PROGRAM IS DISTRIBUTED IN THE HOPE THAT IT WILL BE USEFUL, BUT   
# WITHOUT ANY WARRANTY; WITHOUT EVEN THE IMPLIED WARRANTY OF            
# MERCHANTABILITY OR FITNESS FOR A PARTICULAR PURPOSE. SEE THE GNU      
# GENERAL PUBLIC LICENSE FOR MORE DETAILS.                              
#                                                                       
# YOU SHOULD HAVE RECEIVED A COPY OF THE GNU GENERAL PUBLIC LICENSE     
# ALONG WITH THIS PROGRAM; IF NOT, WRITE TO EDF R&D CODE_ASTER,         
#    1 AVENUE DU GENERAL DE GAULLE, 92141 CLAMART CEDEX, FRANCE.        
# ======================================================================

DEBUT(  CODE=_F(  NOM = 'SZLZ107B',NIV_PUB_WEB='INTERNET'),DEBUG=_F(SDVERI='OUI'))

### ON VEUT RETROUVER LE MEME RESULTAT AVEC CALC_FATIGUE DE CAS-TEST SSLV135d
SIGMXX=DEFI_FONCTION(    NOM_PARA='INST',
                          VALE=(  
# Partie monotone
#                                   0     ,  0     ,
#                                   0.25  ,  50    ,
#                                   0.5   ,  100   ,
#                                   0.75  ,  150   ,                                 
                                  1     ,  200   ,
                                  1.25  ,  150   ,
                                  1.5   ,  100   ,
                                  1.75  ,  50    ,
                                  2     ,  0     ,
                                  2.25  ,  -50   ,
                                  2.5   ,  -100  ,
                                  2.75  ,  -150  ,
                                  3     ,  -200  ,
                                  3.25  ,  -150  ,
                                  3.5   ,  -100  ,
                                  3.75  ,  -50   ,
                                  4     ,  0     ,
                                  4.25  ,  50    ,
                                  4.5   ,  100   ,
                                  4.75  ,  150   ,
                                  5     ,  200   ,
                                  
                                  )  )

ZERO  =DEFI_FONCTION(    NOM_PARA='INST',
                          VALE=(  
#                                   0     ,  0     ,
#                                   0.25  ,  0    ,
#                                   0.5   ,  0   ,
#                                   0.75  ,  0   ,                                 
                                  1     ,  0   ,
                                  1.25  ,  0   ,
                                  1.5   ,  0   ,
                                  1.75  ,  0    ,
                                  2     ,  0     ,
                                  2.25  ,  0   ,
                                  2.5   ,  0  ,
                                  2.75  ,  0  ,
                                  3     ,  0  ,
                                  3.25  ,  0  ,
                                  3.5   ,  0  ,
                                  3.75  ,  0   ,
                                  4     ,  0     ,
                                  4.25  ,  0    ,
                                  4.5   ,  0   ,
                                  4.75  ,  0   ,
                                  5     ,  0   ,
                                  
                                  )  )

EPSTXX=DEFI_FONCTION(    NOM_PARA='INST',
                          VALE=(  
#                                   0     ,   0       ,
#                                   0.25  ,   0.00025 ,
#                                   0.5   ,   0.0005  ,
#                                   0.75  ,   0.00075 ,                                  
                                  1     ,   0.00175 ,
                                  1.25  ,   0.0015  ,
                                  1.5   ,   0.00125 ,
                                  1.75  ,   0.001   ,
                                  2     ,   0.00075 ,
                                  2.25  ,   0.0005  ,
                                  2.5   ,   0.00025 ,
                                  2.75  ,  -0.00075 ,
                                  3     ,  -0.00175 ,
                                  3.25  ,  -0.0015  ,
                                  3.5   ,  -0.00125 ,
                                  3.75  ,  -0.001   ,
                                  4     ,  -0.00075 ,
                                  4.25  ,  -0.0005  ,
                                  4.5   ,  -0.00025 ,
                                  4.75  ,   0.00075 ,
                                  5     ,   0.00175 ,                                 
                                  )  )
                                  
EPSTYY=DEFI_FONCTION(    NOM_PARA='INST',
                          VALE=(  
#                                   0     ,0         ,
#                                   0.25  ,-0.000075 ,
#                                   0.5   ,-0.00015  ,
#                                   0.75  ,-0.000225 ,                                  
                                  1     ,-0.000675 ,
                                  1.25  ,-0.0006   ,
                                  1.5   ,-0.000525 ,
                                  1.75  ,-0.00045  ,
                                  2     ,-0.000375 ,
                                  2.25  ,-0.0003   ,
                                  2.5   ,-0.000225 ,
                                  2.75  ,0.000225  ,
                                  3     ,0.000675  ,
                                  3.25  ,0.0006    ,
                                  3.5   ,0.000525  ,
                                  3.75  ,0.00045   ,
                                  4     ,0.000375  ,
                                  4.25  ,0.0003    ,
                                  4.5   ,0.000225  ,
                                  4.75  ,-0.000225 ,
                                  5     ,-0.000675 ,
                                  
                                  )  )

EPSTZZ=DEFI_FONCTION(    NOM_PARA='INST',
                          VALE=(  
#                                   0     ,0         ,
#                                   0.25  ,-0.000075 ,
#                                   0.5   ,-0.00015  ,
#                                   0.75  ,-0.000225 ,                                  
                                  1     ,-0.000675 ,
                                  1.25  ,-0.0006   ,
                                  1.5   ,-0.000525 ,
                                  1.75  ,-0.00045  ,
                                  2     ,-0.000375 ,
                                  2.25  ,-0.0003   ,
                                  2.5   ,-0.000225 ,
                                  2.75  ,0.000225  ,
                                  3     ,0.000675  ,
                                  3.25  ,0.0006    ,
                                  3.5   ,0.000525  ,
                                  3.75  ,0.00045   ,
                                  4     ,0.000375  ,
                                  4.25  ,0.0003    ,
                                  4.5   ,0.000225  ,
                                  4.75  ,-0.000225 ,
                                  5     ,-0.000675 ,
                                  
                                  )  )

EPSPXX=DEFI_FONCTION(    NOM_PARA='INST',
                          VALE=(  
#                                   0     , 0        ,
#                                   0.25  , 0        ,
#                                   0.5   , 0        ,
#                                   0.75  , 0        ,
                                  1     , 0.00075  ,
                                  1.25  , 0.00075  ,
                                  1.5   , 0.00075  ,
                                  1.75  , 0.00075  ,
                                  2     , 0.00075  ,
                                  2.25  , 0.00075  ,
                                  2.5   , 0.00075  ,
                                  2.75  , 0        ,
                                  3     , -0.00075 ,
                                  3.25  , -0.00075 ,
                                  3.5   , -0.00075 ,
                                  3.75  , -0.00075 ,
                                  4     , -0.00075 ,
                                  4.25  , -0.00075 ,
                                  4.5   , -0.00075 ,
                                  4.75  , 0        ,
                                  5     , 0.00075  ,
                                  
                                  )  )
                                  
EPSPYY=DEFI_FONCTION(    NOM_PARA='INST',
                          VALE=(  
#                                   0     , 0        ,
#                                   0.25  , 0         ,
#                                   0.5   , 0        ,
#                                   0.75  , 0        ,                                   
                                  1     ,-0.000375 ,
                                  1.25  ,-0.000375 ,
                                  1.5   ,-0.000375 ,
                                  1.75  ,-0.000375 ,
                                  2     ,-0.000375 ,
                                  2.25  ,-0.000375 ,
                                  2.5   ,-0.000375 ,
                                  2.75  ,-0        ,
                                  3     ,0.000375  ,
                                  3.25  ,0.000375  ,
                                  3.5   ,0.000375  ,
                                  3.75  ,0.000375  ,
                                  4     ,0.000375  ,
                                  4.25  ,0.000375  ,
                                  4.5   ,0.000375  ,
                                  4.75  ,0        ,
                                  5     ,-0.000375 ,
                                  
                                  )  )

EPSPZZ=DEFI_FONCTION(    NOM_PARA='INST',
                          VALE=(  
#                                   0     , 0         ,
#                                   0.25  , 0        ,
#                                   0.5   , 0        ,
#                                   0.75  , 0        ,                                 
                                  1     ,-0.000375 ,                                  
                                  1.25  ,-0.000375 ,
                                  1.5   ,-0.000375 ,
                                  1.75  ,-0.000375 ,
                                  2     ,-0.000375 ,
                                  2.25  ,-0.000375 ,
                                  2.5   ,-0.000375 ,
                                  2.75  , 0        ,
                                  3     ,0.000375  ,
                                  3.25  ,0.000375  ,
                                  3.5   ,0.000375  ,
                                  3.75  ,0.000375  ,
                                  4     ,0.000375  ,
                                  4.25  ,0.000375  ,
                                  4.5   ,0.000375  ,
                                  4.75  , 0        ,
                                  5     ,-0.000375 ,
                                  
                                  )  )
                                                                                  
WHOL=DEFI_FONCTION(       NOM_PARA='SIGM',
                            INTERPOL='LOG',
                          PROL_DROITE='LINEAIRE',
                         PROL_GAUCHE='LINEAIRE',
                         VALE=(   138.,    1000000.,
                                  152.,     500000.,
                                  165.,     200000.,
                                  180.,     100000.,
                                  200.,      50000.,
                                  250.,      20000.,
                                  295.,      12000.,
                                  305.,      10000.,
                                  340.,       5000.,
                                  430.,       2000.,
                                  540.,       1000.,
                                  690.,        500.,
                                  930.,        200.,
                                 1210.,        100.,
                                 1590.,         50.,
                                 2210.,         20.,
                                 2900.,         10.,    )  )

MAT0=DEFI_MATERIAU(
#                    ELAS=_F(E = 200000.,
#                            NU = 0.3,
#                            ALPHA = 0. ),
                    
                   FATIGUE=_F(WOHLER = WHOL,
                              D0 = 540.97,
                              TAU0 = 352.),);

NBPR = 13
CRIT = [None]*NBPR
FATN = [None]*NBPR
FATM = [None]*NBPR
NPAR = [None]*NBPR
CRIT[0] =   FORMULE(
           NOM_PARA='DEPSPE',
           VALE= '''DEPSPE'''
           )

CRIT[1] =   FORMULE(
           NOM_PARA='EPSPR1',
           VALE= '''EPSPR1'''
           )

CRIT[2] =   FORMULE(
           NOM_PARA='SIGNM1',
           VALE= '''SIGNM1'''
           )

CRIT[3] =   FORMULE(
           NOM_PARA='APHYDR',
           VALE= '''APHYDR'''
           )
CRIT[4] =   FORMULE(
           NOM_PARA='DENDIS',
           VALE= '''DENDIS'''
           )

CRIT[5] =   FORMULE(
           NOM_PARA='DENDIE',
           VALE= '''DENDIE'''
           )

CRIT[6] =   FORMULE(
           NOM_PARA='DSIGEQ',
           VALE= '''DSIGEQ'''
           )

CRIT[7] =   FORMULE(
           NOM_PARA='SIGPR1',
           VALE= '''SIGPR1'''
           )

CRIT[8] =   FORMULE(
           NOM_PARA='EPSNM1',
           VALE= '''EPSNM1'''
           )

CRIT[9] =   FORMULE(
           NOM_PARA='INVA2S',
           VALE= '''INVA2S'''
           )

CRIT[10] =   FORMULE(
           NOM_PARA='DSITRE',
           VALE= '''DSITRE'''
           )

CRIT[11] =   FORMULE(
           NOM_PARA='DEPTRE',
           VALE= '''DEPTRE'''
           )

CRIT[12] =   FORMULE(
           NOM_PARA='EPSPAC',
           VALE= '''EPSPAC'''
           )

RESU = [7.5E-4, 7.625E-4, 200, 66.66666, 0.45, 0.17333333,  200, 100, 1.75E-3 , 1.616666E-3, 50, 6.0625E-4,3.6742346E-3]
NPAR = ['DEPSPE', 'EPSPR1', 'SIGNM1', 'APHYDR', 'DENDIS','DENDIE', 'DSIGEQ','SIGPR1', 'EPSNM1','INVA2S','DSITRE','DEPTRE', 'EPSPAC' ]
for i in range(NBPR) :
#for i in range(5,6) :
#
# TEST CRITERE FORMULE 
#########################################NOEUD
    FATN[i]=POST_FATIGUE(    CHARGEMENT='MULTIAXIAL',
                       HISTOIRE=_F(  
                                     SIGM_XX = SIGMXX,
                                     SIGM_YY = ZERO,
                                     SIGM_ZZ = ZERO,
                                     SIGM_XY = ZERO,
                                     SIGM_XZ = ZERO,
                                     SIGM_YZ = ZERO,
                                     
                                     EPS_XX  = EPSTXX,
                                     EPS_YY  = EPSTYY,
                                     EPS_ZZ  = EPSTZZ,
                                     EPS_XY  = ZERO,
                                     EPS_XZ  = ZERO,
                                     EPS_YZ  = ZERO,
                                     
                                     EPSP_XX  = EPSPXX,
                                     EPSP_YY  = EPSPYY,
                                     EPSP_ZZ  = EPSPZZ,
                                     EPSP_XY  = ZERO,
                                     EPSP_XZ  = ZERO,
                                     EPSP_YZ  = ZERO,
                                     
                                     ),
                       TYPE_CHARGE = 'PERIODIQUE',
                       CRITERE='FORMULE_CRITERE',
                       FORMULE_GRDEQ = CRIT[i],
                       DOMMAGE='WOHLER',
                       MATER=MAT0                
                        )
                       
    IMPR_TABLE(TABLE = FATN[i]) 

    TEST_TABLE(VALE_CALC=RESU[i],
               VALE_REFE=RESU[i],
               REFERENCE='ANALYTIQUE',
               NOM_PARA=NPAR[i],
               TABLE=FATN[i],)

###################################################
# POUR RETROUVER LES CRITERES DE DANG_VAN ET MATAKE
###################################################
#LE CHARGEMENT OBTENU AVEC SSLV135a
#######################################################
# ASSOCIE AVEC LA SOLUTION SOL_NL de SSLV135a
#######################################################
# POUR DANG-VAN et MATAKE
SIGMXX2=DEFI_FONCTION(    NOM_PARA='INST',
                          VALE=(  
                      0.00000E+00 ,  0.00000E+00,  
                      5.00000E-01 ,  5.00000E+01,  
                      1.00000E+00 ,  1.00000E+02,  
                      1.50000E+00 ,  5.00000E+01,  
                      2.00000E+00 ,  1.28358E-14,  
                      2.50000E+00 , -5.00000E+01,  
                      3.00000E+00 , -1.00000E+02,  
                      3.50000E+00 , -5.00000E+01,  
                      4.00000E+00 , -1.40267E-26,  
                           )  )
                                  
SIGMYY2=DEFI_FONCTION(    NOM_PARA='INST',
                          VALE=(  
                      0.00000E+00 ,  0.00000E+00 ,  
                      5.00000E-01 , -1.00000E+02 ,  
                      1.00000E+00 , -2.00000E+02 ,  
                      1.50000E+00 , -1.00000E+02 ,  
                      2.00000E+00 , -2.52742E-13 ,  
                      2.50000E+00 ,  1.00000E+02 ,  
                      3.00000E+00 ,  2.00000E+02 ,  
                      3.50000E+00 ,  1.00000E+02 ,  
                      4.00000E+00 , -1.40368E-26 ,  
                                  )  )
ZERO2  =DEFI_FONCTION(    NOM_PARA='INST',
                          VALE=(  
                      0.00000E+00 ,0 ,
                      5.00000E-01 ,0 ,
                      1.00000E+00 ,0 ,
                      1.50000E+00 ,0 ,
                      2.00000E+00 ,0 ,
                      2.50000E+00 ,0 ,
                      3.00000E+00 ,0 ,
                      3.50000E+00 ,0 ,
                      4.00000E+00 ,0 ,
                                  )  )

EPSTXX2=DEFI_FONCTION(    NOM_PARA='INST',
                          VALE=(  
                      0.00000E+00 , 0.00000E+00 ,
                      5.00000E-01 , 4.00000E-04 ,
                      1.00000E+00 , 8.00000E-04 ,
                      1.50000E+00 , 4.00000E-04 ,
                      2.00000E+00 , 4.25211E-19 ,
                      2.50000E+00 ,-4.00000E-04 ,
                      3.00000E+00 ,-8.00000E-04 ,
                      3.50000E+00 ,-4.00000E-04 ,
                      4.00000E+00 ,-1.28195E-33 ,
                            )
                            )                    

                                  
EPSTYY2=DEFI_FONCTION(    NOM_PARA='INST',
                          VALE=(  
                      0.00000E+00 ,  0.00000E+00 ,
                      5.00000E-01 , -5.75000E-04 ,
                      1.00000E+00 , -1.15000E-03 ,
                      1.50000E+00 , -5.75000E-04 ,
                      2.00000E+00 , -1.30104E-18 ,
                      2.50000E+00 ,  5.75000E-04 ,
                      3.00000E+00 ,  1.15000E-03 ,
                      3.50000E+00 ,  5.75000E-04 ,
                      4.00000E+00 ,  2.40741E-33 ,     
                                  )  )

EPSTZZ2=DEFI_FONCTION(    NOM_PARA='INST',
                          VALE=(  
                      0.00000E+00 , 0.00000E+00 ,
                      5.00000E-01 , 7.50000E-05 ,
                      1.00000E+00 , 1.50000E-04 ,
                      1.50000E+00 , 7.50000E-05 ,
                      2.00000E+00 , 4.20128E-19 ,
                      2.50000E+00 ,-7.50000E-05 ,
                      3.00000E+00 ,-1.50000E-04 ,
                      3.50000E+00 ,-7.50000E-05 ,
                      4.00000E+00 ,-2.31112E-33 ,   
                                  ) ) 
           
## CRITERES A TESTER
CRIT2 = [None]*4

#POUR RETROUVER 'MATAKE_MODI_AC'
CRIT2[0] =   FORMULE(
           NOM_PARA=('DTAUMA','NORMAX'),
           VALE=''' 1.5*( DTAUMA + max(0,NORMAX) ) '''
           )
           
#POUR RETROUVER 'DANG_VAN_MODI_AC'
CRIT2[1] =  FORMULE(
           NOM_PARA=('DTAUMA','PHYDRM'),
           VALE=''' 1.5*(DTAUMA + max(PHYDRM,0)) '''
           )
CRIT2[2] = 'MATAKE_MODI_AC'
CRIT2[3] = 'DANG_VAN_MODI_AC'
## -----------------------------------------------------------------------

FATN2 = [None]*4

NPAR = ['DTAUMA','VNM1X', 'VNM1Y', 'VNM1Z','NORMAX', 'NORMOY','EPNMAX', 'EPNMOY',
         'VALE_CRITERE','NBRUP','DOMMAGE']
CTEST = ['RELATIF', 'RELATIF', 'RELATIF','ABSOLU', 'RELATIF','ABSOLU', 'RELATIF', 
         'ABSOLU','RELATIF', 'RELATIF', 'RELATIF']
 
RESU = [1.50E+02, 7.0710678118655E-01, 7.0710678118655E-01,0, 
        5.0000000000000E+01, 0,1.7500000000000E-04, 0,
        3.0000000000000E+02, 1.0946000000000E+04 ,9.1356470832402E-05,
# DANG_VAN        
        1.50E+02, 7.0710678118655E-01, 7.0710678118655E-01,0, 
        5.0000000000000E+01, 0,1.7500000000000E-04,0,
        2.7500000000000E+02, 1.4903000000000E+04 ,6.7099587679274E-05,
          ]
# 
NPARM = ['DTAUMA','NORMAX', 'VALE_CRITERE','NBRUP','DOMMAGE']
NPARD = ['DTAUMA','PHYDRM', 'VALE_CRITERE','NBRUP','DOMMAGE']

for i in range(2) :

    FATN2[i]=POST_FATIGUE(    CHARGEMENT='MULTIAXIAL',
                       HISTOIRE=_F(  
                                     SIGM_XX = SIGMXX2,
                                     SIGM_YY = SIGMYY2,
                                     SIGM_ZZ = ZERO2,
                                     SIGM_XY = ZERO2,
                                     SIGM_XZ = ZERO2,
                                     SIGM_YZ = ZERO2,
                                     
                                     EPS_XX  = EPSTXX2,
                                     EPS_YY  = EPSTYY2,
                                     EPS_ZZ  = EPSTZZ2,
                                     EPS_XY  = ZERO2,
                                     EPS_XZ  = ZERO2,
                                     EPS_YZ  = ZERO2,
                                     
                                     ),
                       TYPE_CHARGE = 'PERIODIQUE',
                       CRITERE='FORMULE_CRITERE',
                       FORMULE_GRDEQ = CRIT2[i],
                       DOMMAGE='WOHLER',
                       METHODE = 'CERCLE_EXACT',
                       MATER=MAT0                  
                       )
    
    IMPR_TABLE(TABLE = FATN2[i])
    
    for j in range(11) :     
        crit = 'RELATIF' if RESU[j + 11*i] != 0. else 'ABSOLU'
        TEST_TABLE(CRITERE=crit,
                   VALE_REFE=RESU[j+ 11*i],
                   VALE_CALC=RESU[j+ 11*i],
                   REFERENCE='ANALYTIQUE',
                   NOM_PARA=NPAR[j],
                   TABLE=FATN2[i],)

FATNW2 = [None]*2

### FORMULE_VIE = WHOL,
for i in range(2) :
    FATNW2[i]=POST_FATIGUE(    CHARGEMENT='MULTIAXIAL',
                       HISTOIRE=_F(  
                                     SIGM_XX = SIGMXX2,
                                     SIGM_YY = SIGMYY2,
                                     SIGM_ZZ = ZERO2,
                                     SIGM_XY = ZERO2,
                                     SIGM_XZ = ZERO2,
                                     SIGM_YZ = ZERO2,
                                     
                                     EPS_XX  = EPSTXX2,
                                     EPS_YY  = EPSTYY2,
                                     EPS_ZZ  = EPSTZZ2,
                                     EPS_XY  = ZERO2,
                                     EPS_XZ  = ZERO2,
                                     EPS_YZ  = ZERO2,
                                     
                                     ),
                       TYPE_CHARGE = 'PERIODIQUE',
                       CRITERE='FORMULE_CRITERE',
                       FORMULE_GRDEQ = CRIT2[i],
                       DOMMAGE  = 'FORM_VIE',
                       FORMULE_VIE = WHOL,
                       METHODE = 'CERCLE_EXACT',
                       MATER=MAT0  
                       )
    
    IMPR_TABLE(TABLE = FATNW2[i])
    
    for j in range(11) :     
        crit = 'RELATIF' if RESU[j + 11*i] != 0. else 'ABSOLU'
        TEST_TABLE(CRITERE=crit,
                   VALE_REFE=RESU[j + 11*i],
                   VALE_CALC=RESU[j + 11*i],
                   REFERENCE='ANALYTIQUE',
                   NOM_PARA=NPAR[j],
                   TABLE=FATNW2[i],)

### POUR RETROUVER CRIERES EN NOMS
ACIER = [None]*2                                
ACIER[0]   = DEFI_MATERIAU   ( ELAS           =_F( E        = 200000.,
                                                NU       = .3,
                                                ALPHA    = 0. ),
                            FATIGUE        =_F( WOHLER   = WHOL, ),
                            CISA_PLAN_CRIT =_F( CRITERE = 'MATAKE_MODI_AC',
                                                MATAKE_A  = 1.0,
                                                MATAKE_B  = 2.0,
                                                COEF_FLEX_TORS = 1.5 )
                          )
ACIER[1]   = DEFI_MATERIAU   ( ELAS           =_F( E        = 200000.,
                                                NU       = .3,
                                                ALPHA    = 0. ),
                            FATIGUE        =_F( WOHLER   = WHOL, ),
                            CISA_PLAN_CRIT =_F( CRITERE = 'DANG_VAN_MODI_AC',
                                                D_VAN_A = 1.0,
                                                D_VAN_B = 2.0,
                                                COEF_CISA_TRAC = 1.5 )
                          )
for i in range(2) :
    FATN2[i+2]=POST_FATIGUE(    CHARGEMENT='MULTIAXIAL',
                       HISTOIRE=_F(  
                                     SIGM_XX = SIGMXX2,
                                     SIGM_YY = SIGMYY2,
                                     SIGM_ZZ = ZERO2,
                                     SIGM_XY = ZERO2,
                                     SIGM_XZ = ZERO2,
                                     SIGM_YZ = ZERO2,
                                     
                                     EPS_XX  = EPSTXX2,
                                     EPS_YY  = EPSTYY2,
                                     EPS_ZZ  = EPSTZZ2,
                                     EPS_XY  = ZERO2,
                                     EPS_XZ  = ZERO2,
                                     EPS_YZ  = ZERO2,
                                     
                                     ),
                       TYPE_CHARGE = 'PERIODIQUE',
                       CRITERE=CRIT2[i+2],
                       MATER=ACIER[i]                  
                       )
    
    IMPR_TABLE(TABLE = FATN2[i+2])
    
    for j in range(11) :     
        crit = 'RELATIF' if RESU[j + 11*i] != 0. else 'ABSOLU'
        TEST_TABLE(CRITERE=crit,
                   VALE_REFE=RESU[j+ 11*i],
                   VALE_CALC=RESU[j+ 11*i],
                   REFERENCE='ANALYTIQUE',
                   NOM_PARA=NPAR[j],
                   TABLE=FATN2[i],)

FIN()
#
