# MODIF  DATE 13/12/2011   AUTEUR PELLET J.PELLET 
# TITRE BARRE CYLINDRIQUE AVEC DENSITE DE FLUX
#            CONFIGURATION MANAGEMENT OF EDF VERSION
# ======================================================================
# COPYRIGHT (C) 1991 - 2011  EDF R&D                  WWW.CODE-ASTER.ORG
# THIS PROGRAM IS FREE SOFTWARE; YOU CAN REDISTRIBUTE IT AND/OR MODIFY
# IT UNDER THE TERMS OF THE GNU GENERAL PUBLIC LICENSE AS PUBLISHED BY
# THE FREE SOFTWARE FOUNDATION; EITHER VERSION 2 OF THE LICENSE, OR   
# (AT YOUR OPTION) ANY LATER VERSION.                                 
#
# THIS PROGRAM IS DISTRIBUTED IN THE HOPE THAT IT WILL BE USEFUL, BUT 
# WITHOUT ANY WARRANTY; WITHOUT EVEN THE IMPLIED WARRANTY OF          
# MERCHANTABILITY OR FITNESS FOR A PARTICULAR PURPOSE. SEE THE GNU    
# GENERAL PUBLIC LICENSE FOR MORE DETAILS.                            
#
# YOU SHOULD HAVE RECEIVED A COPY OF THE GNU GENERAL PUBLIC LICENSE   
# ALONG WITH THIS PROGRAM; IF NOT, WRITE TO EDF R&D CODE_ASTER,       
#    1 AVENUE DU GENERAL DE GAULLE, 92141 CLAMART CEDEX, FRANCE.      
# ======================================================================
#
# MAILLES : TRIA6 (ET L3)
#

DEBUT(  CODE=_F( NOM = 'TPLA05B',NIV_PUB_WEB='INTERNET') )

#
# LECTURE DU MAILLAGE --------------------------------------------------
#


MAIL=LIRE_MAILLAGE( )

#
# DEFINITION DES CHARGEMENTS ET DU MATERIAU ----------------------------
#

# ----- MATERIAU


MATER=DEFI_MATERIAU(   THER=_F(  LAMBDA = 33.33,   RHO_CP = 1.) )

#
# AFFECTATIONS: MATERIAU, MODELE, CHARGEMENT ---------------------------
#


CHMAT=AFFE_MATERIAU(   MAILLAGE=MAIL,
                           AFFE=_F(  TOUT = 'OUI',  MATER = MATER)
                        )

MOTH=AFFE_MODELE(   MAILLAGE=MAIL,
                        AFFE=_F(  TOUT = 'OUI',
                               PHENOMENE = 'THERMIQUE',
                               MODELISATION = 'AXIS')
                      )

CHTH=AFFE_CHAR_THER(   MODELE=MOTH,TEMP_IMPO=(
                           _F(  GROUP_NO = 'NOE_AD',  TEMP = 0.),
                           _F(  GROUP_NO = 'NOE_BC',  TEMP = 500.)),
                            FLUX_REP=_F(  GROUP_MA = 'MAI_DC',  FLUN = -200.)
                        )

#
# DEFINITION DE LA STRATEGIE DE CALCUL ---------------------------------
#

#
# RESOLUTION -----------------------------------------------------------
#

TEMPE=THER_LINEAIRE(   MODELE=MOTH,
                           CHAM_MATER=CHMAT,
                            EXCIT=_F(  CHARGE = CHTH)
                         )

#
# ANALYSE DES RESULTATS ------------------------------------------------
#

TPR=CREA_CHAMP(  OPERATION='EXTR', TYPE_CHAM='NOEU_TEMP_R',
NOM_CHAM='TEMP', RESULTAT=TEMPE,
                      NUME_ORDRE=0
                    )

TEST_RESU(CHAM_NO=(



_F( CHAM_GD = TPR, NOEUD = 'N1',    NOM_CMP = 'TEMP',  VALE = 0.00,  PRECISION = 1.E-5,
                                                 CRITERE = 'ABSOLU'),
_F( CHAM_GD = TPR, NOEUD = 'N3',    NOM_CMP = 'TEMP',  VALE = 0.00,  PRECISION = 1.E-5,
                                                 CRITERE = 'ABSOLU'),
_F( CHAM_GD = TPR, NOEUD = 'N5',    NOM_CMP = 'TEMP',  VALE = 0.00,  PRECISION = 1.E-5,
                                                 CRITERE = 'ABSOLU'),

_F( CHAM_GD = TPR, NOEUD = 'N81',   NOM_CMP = 'TEMP',  VALE = -4.00,  PRECISION = 1.E-2),
_F( CHAM_GD = TPR, NOEUD = 'N83',   NOM_CMP = 'TEMP',  VALE = -4.00,  PRECISION = 1.E-2),
_F( CHAM_GD = TPR, NOEUD = 'N85',   NOM_CMP = 'TEMP',  VALE = -4.00,  PRECISION = 1.E-2),

_F( CHAM_GD = TPR, NOEUD = 'N161',  NOM_CMP = 'TEMP',  VALE = 4.00,  PRECISION = 1.E-2),
_F( CHAM_GD = TPR, NOEUD = 'N163',  NOM_CMP = 'TEMP',  VALE = 4.00,  PRECISION = 1.E-2),
_F( CHAM_GD = TPR, NOEUD = 'N165',  NOM_CMP = 'TEMP',  VALE = 4.00,  PRECISION = 1.E-2),

_F( CHAM_GD = TPR, NOEUD = 'N241',  NOM_CMP = 'TEMP',  VALE = 24.00,  PRECISION = 1.E-2),
_F( CHAM_GD = TPR, NOEUD = 'N243',  NOM_CMP = 'TEMP',  VALE = 24.00,  PRECISION = 1.E-2),
_F( CHAM_GD = TPR, NOEUD = 'N245',  NOM_CMP = 'TEMP',  VALE = 24.00,  PRECISION = 1.E-2),

_F( CHAM_GD = TPR, NOEUD = 'N321',  NOM_CMP = 'TEMP',  VALE = 56.00,  PRECISION = 1.E-2),
_F( CHAM_GD = TPR, NOEUD = 'N323',  NOM_CMP = 'TEMP',  VALE = 56.00,  PRECISION = 1.E-2),
_F( CHAM_GD = TPR, NOEUD = 'N325',  NOM_CMP = 'TEMP',  VALE = 56.00,  PRECISION = 1.E-2),

_F( CHAM_GD = TPR, NOEUD = 'N401',  NOM_CMP = 'TEMP',  VALE = 100.00,  PRECISION = 1.E-2),
_F( CHAM_GD = TPR, NOEUD = 'N403',  NOM_CMP = 'TEMP',  VALE = 100.00,  PRECISION = 1.E-2),
_F( CHAM_GD = TPR, NOEUD = 'N405',  NOM_CMP = 'TEMP',  VALE = 100.00,  PRECISION = 1.E-2),

_F( CHAM_GD = TPR, NOEUD = 'N481',  NOM_CMP = 'TEMP',  VALE = 156.00,  PRECISION = 1.E-2),
_F( CHAM_GD = TPR, NOEUD = 'N483',  NOM_CMP = 'TEMP',  VALE = 156.00,  PRECISION = 1.E-2),
_F( CHAM_GD = TPR, NOEUD = 'N485',  NOM_CMP = 'TEMP',  VALE = 156.00,  PRECISION = 1.E-2),

_F( CHAM_GD = TPR, NOEUD = 'N561',  NOM_CMP = 'TEMP',  VALE = 224.00,  PRECISION = 1.E-2),
_F( CHAM_GD = TPR, NOEUD = 'N563',  NOM_CMP = 'TEMP',  VALE = 224.00,  PRECISION = 1.E-2),
_F( CHAM_GD = TPR, NOEUD = 'N565',  NOM_CMP = 'TEMP',  VALE = 224.00,  PRECISION = 1.E-2),

_F( CHAM_GD = TPR, NOEUD = 'N641',  NOM_CMP = 'TEMP',  VALE = 304.00,  PRECISION = 1.E-2),
_F( CHAM_GD = TPR, NOEUD = 'N643',  NOM_CMP = 'TEMP',  VALE = 304.00,  PRECISION = 1.E-2),
_F( CHAM_GD = TPR, NOEUD = 'N645',  NOM_CMP = 'TEMP',  VALE = 304.00,  PRECISION = 1.E-2),

_F( CHAM_GD = TPR, NOEUD = 'N721',  NOM_CMP = 'TEMP',  VALE = 396.00,  PRECISION = 1.E-2),
_F( CHAM_GD = TPR, NOEUD = 'N723',  NOM_CMP = 'TEMP',  VALE = 396.00,  PRECISION = 1.E-2),
_F( CHAM_GD = TPR, NOEUD = 'N725',  NOM_CMP = 'TEMP',  VALE = 396.00,  PRECISION = 1.E-2),

_F( CHAM_GD = TPR, NOEUD = 'N801',  NOM_CMP = 'TEMP',  VALE = 500.00,  PRECISION = 1.E-5),
_F( CHAM_GD = TPR, NOEUD = 'N803',  NOM_CMP = 'TEMP',  VALE = 500.00,  PRECISION = 1.E-5),
_F( CHAM_GD = TPR, NOEUD = 'N805',  NOM_CMP = 'TEMP',  VALE = 500.00,  PRECISION = 1.E-5))

          )

#
# FIN ------------------------------------------------------------------
#

FIN()
#
#
