# MODIF  DATE 17/01/2012   AUTEUR SELLENET N.SELLENET 
# TITRE PLAQUE CIRCULAIRE SOUMISE A UNE SOURCE DE CHALEUR VOLUMIQUE
#            CONFIGURATION MANAGEMENT OF EDF VERSION
# ======================================================================
# COPYRIGHT (C) 1991 - 2012  EDF R&D                  WWW.CODE-ASTER.ORG
# THIS PROGRAM IS FREE SOFTWARE; YOU CAN REDISTRIBUTE IT AND/OR MODIFY
# IT UNDER THE TERMS OF THE GNU GENERAL PUBLIC LICENSE AS PUBLISHED BY
# THE FREE SOFTWARE FOUNDATION; EITHER VERSION 2 OF THE LICENSE, OR   
# (AT YOUR OPTION) ANY LATER VERSION.                                 
#
# THIS PROGRAM IS DISTRIBUTED IN THE HOPE THAT IT WILL BE USEFUL, BUT 
# WITHOUT ANY WARRANTY; WITHOUT EVEN THE IMPLIED WARRANTY OF          
# MERCHANTABILITY OR FITNESS FOR A PARTICULAR PURPOSE. SEE THE GNU    
# GENERAL PUBLIC LICENSE FOR MORE DETAILS.                            
#
# YOU SHOULD HAVE RECEIVED A COPY OF THE GNU GENERAL PUBLIC LICENSE   
# ALONG WITH THIS PROGRAM; IF NOT, WRITE TO EDF R&D CODE_ASTER,       
#    1 AVENUE DU GENERAL DE GAULLE, 92141 CLAMART CEDEX, FRANCE.      
# ======================================================================
#

DEBUT(  CODE=_F( NOM = 'TPLA300A',NIV_PUB_WEB='INTERNET'))

#
# LECTURE DU MAILLAGE ----------------------------------------------
#

MAILL=LIRE_MAILLAGE(FORMAT='MED',  )

#
# DEFINITION DES CHARGEMENTS ET DU MATERIAU ------------------------
#

MATE=DEFI_MATERIAU( THER=_F( RHO_CP = 1.0, LAMBDA = 0.04))

#
# AFFECTATIONS: MATERIAU  MODELE  CHARGEMENT ----------------------
#

MODEL=AFFE_MODELE( 
                  MAILLAGE=MAILL,
                     AFFE=_F( TOUT = 'OUI',  PHENOMENE = 'THERMIQUE',
                                       MODELISATION = 'PLAN'))

CHMATE=AFFE_MATERIAU(   MAILLAGE=MAILL,
                    AFFE=_F( TOUT = 'OUI',  MATER = MATE))

CHARGE=AFFE_CHAR_THER(
                      MODELE=MODEL,
                  TEMP_IMPO=_F( GROUP_NO = 'NOE_IMP',  TEMP = 0.E0),
                     SOURCE=_F( TOUT = 'OUI', SOUR = 1.E0)
                  )

#
# RESOLUTION ------------------------------------------------------
#


TEMP=THER_LINEAIRE( 
                      MODELE=MODEL,
                  CHAM_MATER=CHMATE,
                      EXCIT=_F(  CHARGE = CHARGE) )

#
# ANALYSE DES RESULTATS -------------------------------------------
#
TPR=CREA_CHAMP(  OPERATION='EXTR', TYPE_CHAM='NOEU_TEMP_R',
NOM_CHAM='TEMP', RESULTAT=TEMP, NUME_ORDRE=0)

#

TEST_RESU(CHAM_NO=(
#--- R=0.
              _F( CHAM_GD = TPR,  NOEUD = 'N1',   NOM_CMP = 'TEMP',
                       VALE = 156.25,  PRECISION = 1.E-2),
#--- R=0.625
              _F( CHAM_GD = TPR,  NOEUD = 'N3',   NOM_CMP = 'TEMP',
                       VALE = 153.81,  PRECISION = 1.E-2),
              _F( CHAM_GD = TPR,  NOEUD = 'N45',  NOM_CMP = 'TEMP',
                       VALE = 153.81,  PRECISION = 1.E-2),
#--- R=1.25
              _F( CHAM_GD = TPR,  NOEUD = 'N5',   NOM_CMP = 'TEMP',
                       VALE = 146.48,  PRECISION = 1.E-2),
              _F( CHAM_GD = TPR,  NOEUD = 'N79',  NOM_CMP = 'TEMP',
                       VALE = 146.48,  PRECISION = 1.E-2),
#--- R=1.875
              _F( CHAM_GD = TPR,  NOEUD = 'N7',   NOM_CMP = 'TEMP',
                       VALE = 134.28,  PRECISION = 1.E-2),
              _F( CHAM_GD = TPR,  NOEUD = 'N116', NOM_CMP = 'TEMP',
                       VALE = 134.28,  PRECISION = 1.E-2),
#--- R=2.5
              _F( CHAM_GD = TPR,  NOEUD = 'N9',   NOM_CMP = 'TEMP',
                       VALE = 117.19,  PRECISION = 1.E-2),
              _F( CHAM_GD = TPR,  NOEUD = 'N146', NOM_CMP = 'TEMP',
                       VALE = 117.19,  PRECISION = 1.E-2),
              _F( CHAM_GD = TPR,  NOEUD = 'N108', NOM_CMP = 'TEMP',
                       VALE = 117.19,  PRECISION = 1.E-2),
#--- R=3.125
              _F( CHAM_GD = TPR,  NOEUD = 'N11',  NOM_CMP = 'TEMP',
                       VALE = 95.21,   PRECISION = 1.E-2),
              _F( CHAM_GD = TPR,  NOEUD = 'N171', NOM_CMP = 'TEMP',
                       VALE = 95.21,  PRECISION = 1.E-2),
              _F( CHAM_GD = TPR,  NOEUD = 'N133', NOM_CMP = 'TEMP',
                       VALE = 95.21,  PRECISION = 1.E-2),
#--- R=3.75
              _F( CHAM_GD = TPR,  NOEUD = 'N13',  NOM_CMP = 'TEMP',
                       VALE = 68.36,   PRECISION = 1.E-2),
              _F( CHAM_GD = TPR,  NOEUD = 'N191', NOM_CMP = 'TEMP',
                       VALE = 68.36,   PRECISION = 1.E-2),
              _F( CHAM_GD = TPR,  NOEUD = 'N151', NOM_CMP = 'TEMP',
                       VALE = 68.36,   PRECISION = 1.E-2),
#--- R=4.375
              _F( CHAM_GD = TPR,  NOEUD = 'N15',  NOM_CMP = 'TEMP',
                       VALE = 36.62,   PRECISION = 1.E-2),
              _F( CHAM_GD = TPR,  NOEUD = 'N207', NOM_CMP = 'TEMP',
                       VALE = 36.62,   PRECISION = 1.E-2),
              _F( CHAM_GD = TPR,  NOEUD = 'N168', NOM_CMP = 'TEMP',
                       VALE = 36.62,   PRECISION = 1.E-2),
#--- R=5.0
              _F( CHAM_GD = TPR,  NOEUD = 'N17',  NOM_CMP = 'TEMP',
                       VALE = 0.E0,    CRITERE = 'ABSOLU',
                       PRECISION = 1.E-10),
             _F( CHAM_GD = TPR,  NOEUD = 'N217', NOM_CMP = 'TEMP',
                       VALE = 0.E0,    CRITERE = 'ABSOLU',
                       PRECISION = 1.E-10),
              _F( CHAM_GD = TPR,  NOEUD = 'N184', NOM_CMP = 'TEMP',
                       VALE = 0.E0,    CRITERE = 'ABSOLU',
                       PRECISION = 1.E-10))
             )

FIN()
#
