# TITRE BARRE CYLINDRIQUE AVEC DENSITE DE FLUX
#            CONFIGURATION MANAGEMENT OF EDF VERSION
# ======================================================================
# COPYRIGHT (C) 1991 - 2012  EDF R&D                  WWW.CODE-ASTER.ORG
# THIS PROGRAM IS FREE SOFTWARE; YOU CAN REDISTRIBUTE IT AND/OR MODIFY
# IT UNDER THE TERMS OF THE GNU GENERAL PUBLIC LICENSE AS PUBLISHED BY
# THE FREE SOFTWARE FOUNDATION; EITHER VERSION 2 OF THE LICENSE, OR   
# (AT YOUR OPTION) ANY LATER VERSION.                                 
#
# THIS PROGRAM IS DISTRIBUTED IN THE HOPE THAT IT WILL BE USEFUL, BUT 
# WITHOUT ANY WARRANTY; WITHOUT EVEN THE IMPLIED WARRANTY OF          
# MERCHANTABILITY OR FITNESS FOR A PARTICULAR PURPOSE. SEE THE GNU    
# GENERAL PUBLIC LICENSE FOR MORE DETAILS.                            
#
# YOU SHOULD HAVE RECEIVED A COPY OF THE GNU GENERAL PUBLIC LICENSE   
# ALONG WITH THIS PROGRAM; IF NOT, WRITE TO EDF R&D CODE_ASTER,       
#    1 AVENUE DU GENERAL DE GAULLE, 92141 CLAMART CEDEX, FRANCE.      
# ======================================================================
#
# MAILLES : HEXA20, PENTA15 (ET QUAD8)
#

DEBUT(  CODE=_F( NOM = 'TPLA05A',NIV_PUB_WEB='INTERNET') )

#
# LECTURE DU MAILLAGE --------------------------------------------------
#


MAIL=LIRE_MAILLAGE(FORMAT='MED', )

#
# DEFINITION DES CHARGEMENTS ET DU MATERIAU ----------------------------
#

# ----- MATERIAU


MATER=DEFI_MATERIAU(   THER=_F(  LAMBDA = 33.33,   RHO_CP = 1.) )

#
# AFFECTATIONS: MATERIAU, MODELE, CHARGEMENT ---------------------------
#


CHMAT=AFFE_MATERIAU(   MAILLAGE=MAIL,
                           AFFE=_F(  TOUT = 'OUI',  MATER = MATER)
                        )

MOTH=AFFE_MODELE(   MAILLAGE=MAIL,
                        AFFE=_F(  TOUT = 'OUI',
                               PHENOMENE = 'THERMIQUE',
                               MODELISATION = '3D')
                      )

CHTH=AFFE_CHAR_THER(   MODELE=MOTH,TEMP_IMPO=(
                           _F(  GROUP_NO = 'NOE_ADF',  TEMP = 0.),
                           _F(  GROUP_NO = 'NOE_BCE',  TEMP = 500.)),
                            FLUX_REP=_F(  GROUP_MA = 'MA_DFEC',  FLUN = -200.)
                        )

#
# DEFINITION DE LA STRATEGIE DE CALCUL ---------------------------------
#

#
# RESOLUTION -----------------------------------------------------------
#

TEMPE=THER_LINEAIRE(   MODELE=MOTH,
                           CHAM_MATER=CHMAT,
                            EXCIT=_F(  CHARGE = CHTH)
                         )

#
# ANALYSE DES RESULTATS ------------------------------------------------
#

TPR=CREA_CHAMP(  OPERATION='EXTR', TYPE_CHAM='NOEU_TEMP_R',
NOM_CHAM='TEMP', RESULTAT=TEMPE,
                      NUME_ORDRE=0
                    )

TEST_RESU(CHAM_NO=(_F(NOEUD='N1',
                      REFERENCE='ANALYTIQUE',
                      CRITERE='ABSOLU',
                      NOM_CMP='TEMP',
                      CHAM_GD=TPR,
                      VALE_REFE=0.0,
                      VALE_CALC=0.0,),
                   _F(NOEUD='N17',
                      REFERENCE='ANALYTIQUE',
                      CRITERE='ABSOLU',
                      NOM_CMP='TEMP',
                      CHAM_GD=TPR,
                      VALE_REFE=0.0,
                      VALE_CALC=0.0,),
                   _F(NOEUD='N13',
                      REFERENCE='ANALYTIQUE',
                      CRITERE='ABSOLU',
                      NOM_CMP='TEMP',
                      CHAM_GD=TPR,
                      VALE_REFE=0.0,
                      VALE_CALC=0.0,),
                   _F(NOEUD='N7',
                      REFERENCE='ANALYTIQUE',
                      CRITERE='ABSOLU',
                      NOM_CMP='TEMP',
                      CHAM_GD=TPR,
                      VALE_REFE=0.0,
                      VALE_CALC=0.0,),
                   _F(NOEUD='N193',
                      NOM_CMP='TEMP',
                      PRECISION=1.E-2,
                      CHAM_GD=TPR,
                      VALE_CALC=-3.990656749,
                      VALE_REFE=-4.0,
                      REFERENCE='ANALYTIQUE',),
                   _F(NOEUD='N209',
                      NOM_CMP='TEMP',
                      PRECISION=1.E-2,
                      CHAM_GD=TPR,
                      VALE_CALC=-4.020681577,
                      VALE_REFE=-4.0,
                      REFERENCE='ANALYTIQUE',),
                   _F(NOEUD='N205',
                      NOM_CMP='TEMP',
                      PRECISION=1.E-2,
                      CHAM_GD=TPR,
                      VALE_CALC=-4.020681668,
                      VALE_REFE=-4.0,
                      REFERENCE='ANALYTIQUE',),
                   _F(NOEUD='N199',
                      NOM_CMP='TEMP',
                      PRECISION=1.E-2,
                      CHAM_GD=TPR,
                      VALE_CALC=-3.998166196,
                      VALE_REFE=-4.0,
                      REFERENCE='ANALYTIQUE',),
                   _F(NOEUD='N385',
                      NOM_CMP='TEMP',
                      PRECISION=1.E-2,
                      CHAM_GD=TPR,
                      VALE_CALC=4.004939787,
                      VALE_REFE=4.0,
                      REFERENCE='ANALYTIQUE',),
                   _F(NOEUD='N401',
                      NOM_CMP='TEMP',
                      PRECISION=1.E-2,
                      CHAM_GD=TPR,
                      VALE_CALC=3.974914956,
                      VALE_REFE=4.0,
                      REFERENCE='ANALYTIQUE',),
                   _F(NOEUD='N397',
                      NOM_CMP='TEMP',
                      PRECISION=1.E-2,
                      CHAM_GD=TPR,
                      VALE_CALC=3.974914862,
                      VALE_REFE=4.0,
                      REFERENCE='ANALYTIQUE',),
                   _F(NOEUD='N391',
                      NOM_CMP='TEMP',
                      PRECISION=1.E-2,
                      CHAM_GD=TPR,
                      VALE_CALC=3.997430418,
                      VALE_REFE=4.0,
                      REFERENCE='ANALYTIQUE',),
                   _F(NOEUD='N577',
                      NOM_CMP='TEMP',
                      PRECISION=1.E-2,
                      CHAM_GD=TPR,
                      VALE_CALC=24.001798843,
                      VALE_REFE=24.0,
                      REFERENCE='ANALYTIQUE',),
                   _F(NOEUD='N593',
                      NOM_CMP='TEMP',
                      PRECISION=1.E-2,
                      CHAM_GD=TPR,
                      VALE_CALC=23.971774009,
                      VALE_REFE=24.0,
                      REFERENCE='ANALYTIQUE',),
                   _F(NOEUD='N589',
                      NOM_CMP='TEMP',
                      PRECISION=1.E-2,
                      CHAM_GD=TPR,
                      VALE_CALC=23.971774066,
                      VALE_REFE=24.0,
                      REFERENCE='ANALYTIQUE',),
                   _F(NOEUD='N583',
                      NOM_CMP='TEMP',
                      PRECISION=1.E-2,
                      CHAM_GD=TPR,
                      VALE_CALC=23.994289490,
                      VALE_REFE=24.0,
                      REFERENCE='ANALYTIQUE',),
                   _F(NOEUD='N769',
                      NOM_CMP='TEMP',
                      PRECISION=1.E-2,
                      CHAM_GD=TPR,
                      VALE_CALC=55.999907539,
                      VALE_REFE=56.0,
                      REFERENCE='ANALYTIQUE',),
                   _F(NOEUD='N785',
                      NOM_CMP='TEMP',
                      PRECISION=1.E-2,
                      CHAM_GD=TPR,
                      VALE_CALC=55.969874942,
                      VALE_REFE=56.0,
                      REFERENCE='ANALYTIQUE',),
                   _F(NOEUD='N781',
                      NOM_CMP='TEMP',
                      PRECISION=1.E-2,
                      CHAM_GD=TPR,
                      VALE_CALC=55.969882518,
                      VALE_REFE=56.0,
                      REFERENCE='ANALYTIQUE',),
                   _F(NOEUD='N775',
                      NOM_CMP='TEMP',
                      PRECISION=1.E-2,
                      CHAM_GD=TPR,
                      VALE_CALC=55.992398155,
                      VALE_REFE=56.0,
                      REFERENCE='ANALYTIQUE',),
                   _F(NOEUD='N961',
                      NOM_CMP='TEMP',
                      PRECISION=1.E-2,
                      CHAM_GD=TPR,
                      VALE_CALC=99.999278246,
                      VALE_REFE=100.0,
                      REFERENCE='ANALYTIQUE',),
                   _F(NOEUD='N977',
                      NOM_CMP='TEMP',
                      PRECISION=1.E-2,
                      CHAM_GD=TPR,
                      VALE_CALC=99.969253337,
                      VALE_REFE=100.0,
                      REFERENCE='ANALYTIQUE',),
                   _F(NOEUD='N973',
                      NOM_CMP='TEMP',
                      PRECISION=1.E-2,
                      CHAM_GD=TPR,
                      VALE_CALC=99.969253168,
                      VALE_REFE=100.0,
                      REFERENCE='ANALYTIQUE',),
                   _F(NOEUD='N967',
                      NOM_CMP='TEMP',
                      PRECISION=1.E-2,
                      CHAM_GD=TPR,
                      VALE_CALC=99.991768869,
                      VALE_REFE=100.0,
                      REFERENCE='ANALYTIQUE',),
                   _F(NOEUD='N1153',
                      NOM_CMP='TEMP',
                      PRECISION=1.E-2,
                      CHAM_GD=TPR,
                      VALE_CALC=155.999921814,
                      VALE_REFE=156.0,
                      REFERENCE='ANALYTIQUE',),
                   _F(NOEUD='N1169',
                      NOM_CMP='TEMP',
                      PRECISION=1.E-2,
                      CHAM_GD=TPR,
                      VALE_CALC=155.969897042,
                      VALE_REFE=156.0,
                      REFERENCE='ANALYTIQUE',),
                   _F(NOEUD='N1165',
                      NOM_CMP='TEMP',
                      PRECISION=1.E-2,
                      CHAM_GD=TPR,
                      VALE_CALC=155.969896700,
                      VALE_REFE=156.0,
                      REFERENCE='ANALYTIQUE',),
                   _F(NOEUD='N1159',
                      NOM_CMP='TEMP',
                      PRECISION=1.E-2,
                      CHAM_GD=TPR,
                      VALE_CALC=155.992412415,
                      VALE_REFE=156.0,
                      REFERENCE='ANALYTIQUE',),
                   _F(NOEUD='N1345',
                      NOM_CMP='TEMP',
                      PRECISION=1.E-2,
                      CHAM_GD=TPR,
                      VALE_CALC=224.001794363,
                      VALE_REFE=224.0,
                      REFERENCE='ANALYTIQUE',),
                   _F(NOEUD='N1361',
                      NOM_CMP='TEMP',
                      PRECISION=1.E-2,
                      CHAM_GD=TPR,
                      VALE_CALC=223.971769258,
                      VALE_REFE=224.0,
                      REFERENCE='ANALYTIQUE',),
                   _F(NOEUD='N1357',
                      NOM_CMP='TEMP',
                      PRECISION=1.E-2,
                      CHAM_GD=TPR,
                      VALE_CALC=223.971769125,
                      VALE_REFE=224.0,
                      REFERENCE='ANALYTIQUE',),
                   _F(NOEUD='N1351',
                      NOM_CMP='TEMP',
                      PRECISION=1.E-2,
                      CHAM_GD=TPR,
                      VALE_CALC=223.994284942,
                      VALE_REFE=224.0,
                      REFERENCE='ANALYTIQUE',),
                   _F(NOEUD='N1537',
                      NOM_CMP='TEMP',
                      PRECISION=1.E-2,
                      CHAM_GD=TPR,
                      VALE_CALC=304.004945731,
                      VALE_REFE=304.0,
                      REFERENCE='ANALYTIQUE',),
                   _F(NOEUD='N1553',
                      NOM_CMP='TEMP',
                      PRECISION=1.E-2,
                      CHAM_GD=TPR,
                      VALE_CALC=303.974920986,
                      VALE_REFE=304.0,
                      REFERENCE='ANALYTIQUE',),
                   _F(NOEUD='N1549',
                      NOM_CMP='TEMP',
                      PRECISION=1.E-2,
                      CHAM_GD=TPR,
                      VALE_CALC=303.974920930,
                      VALE_REFE=304.0,
                      REFERENCE='ANALYTIQUE',),
                   _F(NOEUD='N1543',
                      NOM_CMP='TEMP',
                      PRECISION=1.E-2,
                      CHAM_GD=TPR,
                      VALE_CALC=303.997436343,
                      VALE_REFE=304.0,
                      REFERENCE='ANALYTIQUE',),
                   _F(NOEUD='N1729',
                      NOM_CMP='TEMP',
                      PRECISION=1.E-2,
                      CHAM_GD=TPR,
                      VALE_CALC=396.009345944,
                      VALE_REFE=396.0,
                      REFERENCE='ANALYTIQUE',),
                   _F(NOEUD='N1745',
                      NOM_CMP='TEMP',
                      PRECISION=1.E-2,
                      CHAM_GD=TPR,
                      VALE_CALC=395.979321101,
                      VALE_REFE=396.0,
                      REFERENCE='ANALYTIQUE',),
                   _F(NOEUD='N1741',
                      NOM_CMP='TEMP',
                      PRECISION=1.E-2,
                      CHAM_GD=TPR,
                      VALE_CALC=395.979320607,
                      VALE_REFE=396.0,
                      REFERENCE='ANALYTIQUE',),
                   _F(NOEUD='N1735',
                      NOM_CMP='TEMP',
                      PRECISION=1.E-2,
                      CHAM_GD=TPR,
                      VALE_CALC=396.001836470,
                      VALE_REFE=396.0,
                      REFERENCE='ANALYTIQUE',),
                   _F(NOEUD='N1921',
                      NOM_CMP='TEMP',
                      CHAM_GD=TPR,
                      VALE_REFE=500.0,
                      VALE_CALC=500.0,
                      REFERENCE='ANALYTIQUE',),
                   _F(NOEUD='N1937',
                      NOM_CMP='TEMP',
                      CHAM_GD=TPR,
                      VALE_REFE=500.0,
                      VALE_CALC=500.0,
                      REFERENCE='ANALYTIQUE',),
                   _F(NOEUD='N1933',
                      NOM_CMP='TEMP',
                      CHAM_GD=TPR,
                      VALE_REFE=500.0,
                      VALE_CALC=500.0,
                      REFERENCE='ANALYTIQUE',),
                   _F(NOEUD='N1927',
                      NOM_CMP='TEMP',
                      CHAM_GD=TPR,
                      VALE_REFE=500.0,
                      VALE_CALC=500.0,
                      REFERENCE='ANALYTIQUE',),
                   ),
          )


FIN()
