# TITRE PLAQUE CIRCULAIRE SOUMISE A UNE SOURCE DE CHALEUR VOLUMIQUE
# ======================================================================
# COPYRIGHT (C) 1991 - 2015  EDF R&D                  WWW.CODE-ASTER.ORG
# THIS PROGRAM IS FREE SOFTWARE; YOU CAN REDISTRIBUTE IT AND/OR MODIFY
# IT UNDER THE TERMS OF THE GNU GENERAL PUBLIC LICENSE AS PUBLISHED BY
# THE FREE SOFTWARE FOUNDATION; EITHER VERSION 2 OF THE LICENSE, OR   
# (AT YOUR OPTION) ANY LATER VERSION.                                 
#
# THIS PROGRAM IS DISTRIBUTED IN THE HOPE THAT IT WILL BE USEFUL, BUT 
# WITHOUT ANY WARRANTY; WITHOUT EVEN THE IMPLIED WARRANTY OF          
# MERCHANTABILITY OR FITNESS FOR A PARTICULAR PURPOSE. SEE THE GNU    
# GENERAL PUBLIC LICENSE FOR MORE DETAILS.                            
#
# YOU SHOULD HAVE RECEIVED A COPY OF THE GNU GENERAL PUBLIC LICENSE   
# ALONG WITH THIS PROGRAM; IF NOT, WRITE TO EDF R&D CODE_ASTER,       
#    1 AVENUE DU GENERAL DE GAULLE, 92141 CLAMART CEDEX, FRANCE.      
# ======================================================================
#

DEBUT(  CODE=_F(NIV_PUB_WEB='INTERNET'))

#
# LECTURE DU MAILLAGE ----------------------------------------------
#

MAILL=LIRE_MAILLAGE(FORMAT='MED',  )

#
# DEFINITION DES CHARGEMENTS ET DU MATERIAU ------------------------
#

MATE=DEFI_MATERIAU( THER=_F( RHO_CP = 1.0, LAMBDA = 0.04))

#
# AFFECTATIONS: MATERIAU  MODELE  CHARGEMENT ----------------------
#

MODEL=AFFE_MODELE( 
                  MAILLAGE=MAILL,
                     AFFE=_F( TOUT = 'OUI',  PHENOMENE = 'THERMIQUE',
                                       MODELISATION = 'PLAN'))

CHMATE=AFFE_MATERIAU(   MAILLAGE=MAILL,
                    AFFE=_F( TOUT = 'OUI',  MATER = MATE))

CHARGE=AFFE_CHAR_THER(
                      MODELE=MODEL,
                  TEMP_IMPO=_F( GROUP_NO = 'NOE_IMP',  TEMP = 0.E0),
                     SOURCE=_F( TOUT = 'OUI', SOUR = 1.E0)
                  )

#
# RESOLUTION ------------------------------------------------------
#


TEMP=THER_LINEAIRE( 
                      MODELE=MODEL,
                  CHAM_MATER=CHMATE,
                      EXCIT=_F(  CHARGE = CHARGE) )

#
# ANALYSE DES RESULTATS -------------------------------------------
#
TPR=CREA_CHAMP(  OPERATION='EXTR', TYPE_CHAM='NOEU_TEMP_R',
NOM_CHAM='TEMP', RESULTAT=TEMP, NUME_ORDRE=0)

#

TEST_RESU(CHAM_NO=(_F(NOEUD='N1',
                      NOM_CMP='TEMP',
                      PRECISION=1.E-2,
                      CHAM_GD=TPR,
                      VALE_CALC=156.071810070,
                      VALE_REFE=156.25,
                      REFERENCE='NON_DEFINI',),
                   _F(NOEUD='N3',
                      NOM_CMP='TEMP',
                      PRECISION=1.E-2,
                      CHAM_GD=TPR,
                      VALE_CALC=153.630899849,
                      VALE_REFE=153.81,
                      REFERENCE='NON_DEFINI',),
                   _F(NOEUD='N45',
                      NOM_CMP='TEMP',
                      PRECISION=1.E-2,
                      CHAM_GD=TPR,
                      VALE_CALC=153.630899849,
                      VALE_REFE=153.81,
                      REFERENCE='NON_DEFINI',),
                   _F(NOEUD='N5',
                      NOM_CMP='TEMP',
                      PRECISION=1.E-2,
                      CHAM_GD=TPR,
                      VALE_CALC=146.309221236,
                      VALE_REFE=146.47999999999999,
                      REFERENCE='NON_DEFINI',),
                   _F(NOEUD='N79',
                      NOM_CMP='TEMP',
                      PRECISION=1.E-2,
                      CHAM_GD=TPR,
                      VALE_CALC=146.309221237,
                      VALE_REFE=146.47999999999999,
                      REFERENCE='NON_DEFINI',),
                   _F(NOEUD='N7',
                      NOM_CMP='TEMP',
                      PRECISION=1.E-2,
                      CHAM_GD=TPR,
                      VALE_CALC=134.104652629,
                      VALE_REFE=134.28,
                      REFERENCE='NON_DEFINI',),
                   _F(NOEUD='N116',
                      NOM_CMP='TEMP',
                      PRECISION=1.E-2,
                      CHAM_GD=TPR,
                      VALE_CALC=134.104652630,
                      VALE_REFE=134.28,
                      REFERENCE='NON_DEFINI',),
                   _F(NOEUD='N9',
                      NOM_CMP='TEMP',
                      PRECISION=1.E-2,
                      CHAM_GD=TPR,
                      VALE_CALC=116.976223042,
                      VALE_REFE=117.19,
                      REFERENCE='NON_DEFINI',),
                   _F(NOEUD='N146',
                      NOM_CMP='TEMP',
                      PRECISION=1.E-2,
                      CHAM_GD=TPR,
                      VALE_CALC=116.976223042,
                      VALE_REFE=117.19,
                      REFERENCE='NON_DEFINI',),
                   _F(NOEUD='N108',
                      NOM_CMP='TEMP',
                      PRECISION=1.E-2,
                      CHAM_GD=TPR,
                      VALE_CALC=116.822976041,
                      VALE_REFE=117.19,
                      REFERENCE='NON_DEFINI',),
                   _F(NOEUD='N11',
                      NOM_CMP='TEMP',
                      PRECISION=1.E-2,
                      CHAM_GD=TPR,
                      VALE_CALC=95.040127010,
                      VALE_REFE=95.209999999999994,
                      REFERENCE='NON_DEFINI',),
                   _F(NOEUD='N171',
                      NOM_CMP='TEMP',
                      PRECISION=1.E-2,
                      CHAM_GD=TPR,
                      VALE_CALC=95.040127011,
                      VALE_REFE=95.209999999999994,
                      REFERENCE='NON_DEFINI',),
                   _F(NOEUD='N133',
                      NOM_CMP='TEMP',
                      PRECISION=1.E-2,
                      CHAM_GD=TPR,
                      VALE_CALC=95.003995324,
                      VALE_REFE=95.209999999999994,
                      REFERENCE='NON_DEFINI',),
                   _F(NOEUD='N13',
                      NOM_CMP='TEMP',
                      PRECISION=1.E-2,
                      CHAM_GD=TPR,
                      VALE_CALC=68.229319062,
                      VALE_REFE=68.359999999999999,
                      REFERENCE='NON_DEFINI',),
                   _F(NOEUD='N191',
                      NOM_CMP='TEMP',
                      PRECISION=1.E-2,
                      CHAM_GD=TPR,
                      VALE_CALC=68.229319062,
                      VALE_REFE=68.359999999999999,
                      REFERENCE='NON_DEFINI',),
                   _F(NOEUD='N151',
                      NOM_CMP='TEMP',
                      PRECISION=1.E-2,
                      CHAM_GD=TPR,
                      VALE_CALC=68.213894026,
                      VALE_REFE=68.359999999999999,
                      REFERENCE='NON_DEFINI',),
                   _F(NOEUD='N15',
                      NOM_CMP='TEMP',
                      PRECISION=1.E-2,
                      CHAM_GD=TPR,
                      VALE_CALC=36.548894536,
                      VALE_REFE=36.619999999999997,
                      REFERENCE='NON_DEFINI',),
                   _F(NOEUD='N207',
                      NOM_CMP='TEMP',
                      PRECISION=1.E-2,
                      CHAM_GD=TPR,
                      VALE_CALC=36.548894537,
                      VALE_REFE=36.619999999999997,
                      REFERENCE='NON_DEFINI',),
                   _F(NOEUD='N168',
                      NOM_CMP='TEMP',
                      PRECISION=1.E-2,
                      CHAM_GD=TPR,
                      VALE_CALC=36.542869062,
                      VALE_REFE=36.619999999999997,
                      REFERENCE='NON_DEFINI',),
                   _F(NOEUD='N17',
                      CRITERE='ABSOLU',
                      NOM_CMP='TEMP',
                      CHAM_GD=TPR,
                      VALE_CALC=0.0,),
                   _F(NOEUD='N217',
                      CRITERE='ABSOLU',
                      NOM_CMP='TEMP',
                      CHAM_GD=TPR,
                      VALE_CALC=0.0,),
                   _F(NOEUD='N184',
                      CRITERE='ABSOLU',
                      NOM_CMP='TEMP',
                      CHAM_GD=TPR,
                      VALE_CALC=0.0,),
                   ),
          )

FIN()
#
