# TITRE BARRE CYLINDRIQUE AVEC DENSITE DE FLUX
# ======================================================================
# COPYRIGHT (C) 1991 - 2012  EDF R&D                  WWW.CODE-ASTER.ORG
# THIS PROGRAM IS FREE SOFTWARE; YOU CAN REDISTRIBUTE IT AND/OR MODIFY
# IT UNDER THE TERMS OF THE GNU GENERAL PUBLIC LICENSE AS PUBLISHED BY
# THE FREE SOFTWARE FOUNDATION; EITHER VERSION 2 OF THE LICENSE, OR   
# (AT YOUR OPTION) ANY LATER VERSION.                                 
#
# THIS PROGRAM IS DISTRIBUTED IN THE HOPE THAT IT WILL BE USEFUL, BUT 
# WITHOUT ANY WARRANTY; WITHOUT EVEN THE IMPLIED WARRANTY OF          
# MERCHANTABILITY OR FITNESS FOR A PARTICULAR PURPOSE. SEE THE GNU    
# GENERAL PUBLIC LICENSE FOR MORE DETAILS.                            
#
# YOU SHOULD HAVE RECEIVED A COPY OF THE GNU GENERAL PUBLIC LICENSE   
# ALONG WITH THIS PROGRAM; IF NOT, WRITE TO EDF R&D CODE_ASTER,       
#    1 AVENUE DU GENERAL DE GAULLE, 92141 CLAMART CEDEX, FRANCE.      
# ======================================================================
#
# MAILLES : TRIA6 (ET L3)
#

DEBUT(  CODE=_F(NIV_PUB_WEB='INTERNET') )

#
# LECTURE DU MAILLAGE --------------------------------------------------
#


MAIL=LIRE_MAILLAGE(FORMAT='MED', )

#
# DEFINITION DES CHARGEMENTS ET DU MATERIAU ----------------------------
#

# ----- MATERIAU


MATER=DEFI_MATERIAU(   THER=_F(  LAMBDA = 33.33,   RHO_CP = 1.) )

#
# AFFECTATIONS: MATERIAU, MODELE, CHARGEMENT ---------------------------
#


CHMAT=AFFE_MATERIAU(   MAILLAGE=MAIL,
                           AFFE=_F(  TOUT = 'OUI',  MATER = MATER)
                        )

MOTH=AFFE_MODELE(   MAILLAGE=MAIL,
                        AFFE=_F(  TOUT = 'OUI',
                               PHENOMENE = 'THERMIQUE',
                               MODELISATION = 'AXIS')
                      )

CHTH=AFFE_CHAR_THER(   MODELE=MOTH,TEMP_IMPO=(
                           _F(  GROUP_NO = 'NOE_AD',  TEMP = 0.),
                           _F(  GROUP_NO = 'NOE_BC',  TEMP = 500.)),
                            FLUX_REP=_F(  GROUP_MA = 'MAI_DC',  FLUN = -200.)
                        )

#
# DEFINITION DE LA STRATEGIE DE CALCUL ---------------------------------
#

#
# RESOLUTION -----------------------------------------------------------
#

TEMPE=THER_LINEAIRE(   MODELE=MOTH,
                           CHAM_MATER=CHMAT,
                            EXCIT=_F(  CHARGE = CHTH)
                         )

#
# ANALYSE DES RESULTATS ------------------------------------------------
#

TPR=CREA_CHAMP(  OPERATION='EXTR', TYPE_CHAM='NOEU_TEMP_R',
NOM_CHAM='TEMP', RESULTAT=TEMPE,
                      NUME_ORDRE=0
                    )

TEST_RESU(CHAM_NO=(_F(NOEUD='N1',
                      CRITERE='ABSOLU',
                      NOM_CMP='TEMP',
                      CHAM_GD=TPR,
                      REFERENCE='ANALYTIQUE',
                      VALE_REFE=0.0,
                      VALE_CALC=0.0,),
                   _F(NOEUD='N3',
                      CRITERE='ABSOLU',
                      NOM_CMP='TEMP',
                      CHAM_GD=TPR,
                      REFERENCE='ANALYTIQUE',
                      VALE_REFE=0.0,
                      VALE_CALC=0.0,),
                   _F(NOEUD='N5',
                      CRITERE='ABSOLU',
                      NOM_CMP='TEMP',
                      CHAM_GD=TPR,
                      REFERENCE='ANALYTIQUE',
                      VALE_REFE=0.0,
                      VALE_CALC=0.0,),
                   _F(NOEUD='N81',
                      NOM_CMP='TEMP',
                      PRECISION=1.E-2,
                      CHAM_GD=TPR,
                      VALE_CALC=-3.990395553,
                      VALE_REFE=-4.0,
                      REFERENCE='ANALYTIQUE',),
                   _F(NOEUD='N83',
                      NOM_CMP='TEMP',
                      PRECISION=1.E-2,
                      CHAM_GD=TPR,
                      VALE_CALC=-3.997896351,
                      VALE_REFE=-4.0,
                      REFERENCE='ANALYTIQUE',),
                   _F(NOEUD='N85',
                      NOM_CMP='TEMP',
                      PRECISION=1.E-2,
                      CHAM_GD=TPR,
                      VALE_CALC=-4.020400237,
                      VALE_REFE=-4.0,
                      REFERENCE='ANALYTIQUE',),
                   _F(NOEUD='N161',
                      NOM_CMP='TEMP',
                      PRECISION=1.E-2,
                      CHAM_GD=TPR,
                      VALE_CALC=4.005406508,
                      VALE_REFE=4.0,
                      REFERENCE='ANALYTIQUE',),
                   _F(NOEUD='N163',
                      NOM_CMP='TEMP',
                      PRECISION=1.E-2,
                      CHAM_GD=TPR,
                      VALE_CALC=3.997905669,
                      VALE_REFE=4.0,
                      REFERENCE='ANALYTIQUE',),
                   _F(NOEUD='N165',
                      NOM_CMP='TEMP',
                      PRECISION=1.E-2,
                      CHAM_GD=TPR,
                      VALE_CALC=3.975378545,
                      VALE_REFE=4.0,
                      REFERENCE='ANALYTIQUE',),
                   _F(NOEUD='N241',
                      NOM_CMP='TEMP',
                      PRECISION=1.E-2,
                      CHAM_GD=TPR,
                      VALE_CALC=24.002413862,
                      VALE_REFE=24.0,
                      REFERENCE='ANALYTIQUE',),
                   _F(NOEUD='N243',
                      NOM_CMP='TEMP',
                      PRECISION=1.E-2,
                      CHAM_GD=TPR,
                      VALE_CALC=23.994912986,
                      VALE_REFE=24.0,
                      REFERENCE='ANALYTIQUE',),
                   _F(NOEUD='N245',
                      NOM_CMP='TEMP',
                      PRECISION=1.E-2,
                      CHAM_GD=TPR,
                      VALE_CALC=23.972333270,
                      VALE_REFE=24.0,
                      REFERENCE='ANALYTIQUE',),
                   _F(NOEUD='N321',
                      NOM_CMP='TEMP',
                      PRECISION=1.E-2,
                      CHAM_GD=TPR,
                      VALE_CALC=56.000614316,
                      VALE_REFE=56.0,
                      REFERENCE='ANALYTIQUE',),
                   _F(NOEUD='N323',
                      NOM_CMP='TEMP',
                      PRECISION=1.E-2,
                      CHAM_GD=TPR,
                      VALE_CALC=55.993113400,
                      VALE_REFE=56.0,
                      REFERENCE='ANALYTIQUE',),
                   _F(NOEUD='N325',
                      NOM_CMP='TEMP',
                      PRECISION=1.E-2,
                      CHAM_GD=TPR,
                      VALE_CALC=55.970478814,
                      VALE_REFE=56.0,
                      REFERENCE='ANALYTIQUE',),
                   _F(NOEUD='N401',
                      NOM_CMP='TEMP',
                      PRECISION=1.E-2,
                      CHAM_GD=TPR,
                      VALE_CALC=100.000016447,
                      VALE_REFE=100.0,
                      REFERENCE='ANALYTIQUE',),
                   _F(NOEUD='N403',
                      NOM_CMP='TEMP',
                      PRECISION=1.E-2,
                      CHAM_GD=TPR,
                      VALE_CALC=99.992515553,
                      VALE_REFE=100.0,
                      REFERENCE='ANALYTIQUE',),
                   _F(NOEUD='N405',
                      NOM_CMP='TEMP',
                      PRECISION=1.E-2,
                      CHAM_GD=TPR,
                      VALE_CALC=99.969848915,
                      VALE_REFE=100.0,
                      REFERENCE='ANALYTIQUE',),
                   _F(NOEUD='N481',
                      NOM_CMP='TEMP',
                      PRECISION=1.E-2,
                      CHAM_GD=TPR,
                      VALE_CALC=156.000630570,
                      VALE_REFE=156.0,
                      REFERENCE='ANALYTIQUE',),
                   _F(NOEUD='N483',
                      NOM_CMP='TEMP',
                      PRECISION=1.E-2,
                      CHAM_GD=TPR,
                      VALE_CALC=155.993129706,
                      VALE_REFE=156.0,
                      REFERENCE='ANALYTIQUE',),
                   _F(NOEUD='N485',
                      NOM_CMP='TEMP',
                      PRECISION=1.E-2,
                      CHAM_GD=TPR,
                      VALE_CALC=155.970411155,
                      VALE_REFE=156.0,
                      REFERENCE='ANALYTIQUE',),
                   _F(NOEUD='N561',
                      NOM_CMP='TEMP',
                      PRECISION=1.E-2,
                      CHAM_GD=TPR,
                      VALE_CALC=224.002413877,
                      VALE_REFE=224.0,
                      REFERENCE='ANALYTIQUE',),
                   _F(NOEUD='N563',
                      NOM_CMP='TEMP',
                      PRECISION=1.E-2,
                      CHAM_GD=TPR,
                      VALE_CALC=223.994912942,
                      VALE_REFE=224.0,
                      REFERENCE='ANALYTIQUE',),
                   _F(NOEUD='N565',
                      NOM_CMP='TEMP',
                      PRECISION=1.E-2,
                      CHAM_GD=TPR,
                      VALE_CALC=223.972137684,
                      VALE_REFE=224.0,
                      REFERENCE='ANALYTIQUE',),
                   _F(NOEUD='N641',
                      NOM_CMP='TEMP',
                      PRECISION=1.E-2,
                      CHAM_GD=TPR,
                      VALE_CALC=304.005413835,
                      VALE_REFE=304.0,
                      REFERENCE='ANALYTIQUE',),
                   _F(NOEUD='N643',
                      NOM_CMP='TEMP',
                      PRECISION=1.E-2,
                      CHAM_GD=TPR,
                      VALE_CALC=303.997912910,
                      VALE_REFE=304.0,
                      REFERENCE='ANALYTIQUE',),
                   _F(NOEUD='N645',
                      NOM_CMP='TEMP',
                      PRECISION=1.E-2,
                      CHAM_GD=TPR,
                      VALE_CALC=303.975015860,
                      VALE_REFE=304.0,
                      REFERENCE='ANALYTIQUE',),
                   _F(NOEUD='N721',
                      NOM_CMP='TEMP',
                      PRECISION=1.E-2,
                      CHAM_GD=TPR,
                      VALE_CALC=396.009607785,
                      VALE_REFE=396.0,
                      REFERENCE='ANALYTIQUE',),
                   _F(NOEUD='N723',
                      NOM_CMP='TEMP',
                      PRECISION=1.E-2,
                      CHAM_GD=TPR,
                      VALE_CALC=396.002106811,
                      VALE_REFE=396.0,
                      REFERENCE='ANALYTIQUE',),
                   _F(NOEUD='N725',
                      NOM_CMP='TEMP',
                      PRECISION=1.E-2,
                      CHAM_GD=TPR,
                      VALE_CALC=395.979056909,
                      VALE_REFE=396.0,
                      REFERENCE='ANALYTIQUE',),
                   _F(NOEUD='N801',
                      NOM_CMP='TEMP',
                      CHAM_GD=TPR,
                      REFERENCE='ANALYTIQUE',
                      VALE_REFE=500.0,
                      VALE_CALC=500.0,),
                   _F(NOEUD='N803',
                      NOM_CMP='TEMP',
                      CHAM_GD=TPR,
                      REFERENCE='ANALYTIQUE',
                      VALE_REFE=500.0,
                      VALE_CALC=500.0,),
                   _F(NOEUD='N805',
                      NOM_CMP='TEMP',
                      CHAM_GD=TPR,
                      REFERENCE='ANALYTIQUE',
                      VALE_REFE=500.0,
                      VALE_CALC=500.0,),
                   ),
          )

FIN()
