# MODIF  DATE 07/06/2000   AUTEUR VABHHTS J.PELLET 
# TITRE BARRE CYLINDRIQUE AVEC DENSITE DE FLUX
#            CONFIGURATION MANAGEMENT OF EDF VERSION
# ======================================================================
# COPYRIGHT (C) 1991 - 2001  EDF R&D                  WWW.CODE-ASTER.ORG
# THIS PROGRAM IS FREE SOFTWARE; YOU CAN REDISTRIBUTE IT AND/OR MODIFY
# IT UNDER THE TERMS OF THE GNU GENERAL PUBLIC LICENSE AS PUBLISHED BY
# THE FREE SOFTWARE FOUNDATION; EITHER VERSION 2 OF THE LICENSE, OR   
# (AT YOUR OPTION) ANY LATER VERSION.                                 
#
# THIS PROGRAM IS DISTRIBUTED IN THE HOPE THAT IT WILL BE USEFUL, BUT 
# WITHOUT ANY WARRANTY; WITHOUT EVEN THE IMPLIED WARRANTY OF          
# MERCHANTABILITY OR FITNESS FOR A PARTICULAR PURPOSE. SEE THE GNU    
# GENERAL PUBLIC LICENSE FOR MORE DETAILS.                            
#
# YOU SHOULD HAVE RECEIVED A COPY OF THE GNU GENERAL PUBLIC LICENSE   
# ALONG WITH THIS PROGRAM; IF NOT, WRITE TO EDF R&D CODE_ASTER,       
#    1 AVENUE DU GENERAL DE GAULLE, 92141 CLAMART CEDEX, FRANCE.      
# ======================================================================
#
# MAILLES : HEXA20, PENTA15 (ET QUAD8)
#

DEBUT(  CODE=_F( NOM = 'TPLA05A',NIV_PUB_WEB='INTERNET') )

#
# LECTURE DU MAILLAGE --------------------------------------------------
#


MAIL=LIRE_MAILLAGE( )

#
# DEFINITION DES CHARGEMENTS ET DU MATERIAU ----------------------------
#

# ----- MATERIAU


MATER=DEFI_MATERIAU(   THER=_F(  LAMBDA = 33.33,   RHO_CP = 1.) )

#
# AFFECTATIONS: MATERIAU, MODELE, CHARGEMENT ---------------------------
#


CHMAT=AFFE_MATERIAU(   MAILLAGE=MAIL,
                           AFFE=_F(  TOUT = 'OUI',  MATER = MATER)
                        )

MOTH=AFFE_MODELE(   MAILLAGE=MAIL,
                        AFFE=_F(  TOUT = 'OUI',
                               PHENOMENE = 'THERMIQUE',
                               MODELISATION = '3D')
                      )

CHTH=AFFE_CHAR_THER(   MODELE=MOTH,TEMP_IMPO=(
                           _F(  GROUP_NO = 'NOE_ADF',  TEMP = 0.),
                           _F(  GROUP_NO = 'NOE_BCE',  TEMP = 500.)),
                            FLUX_REP=_F(  GROUP_MA = 'MA_DFEC',  FLUN = -200.)
                        )

#
# DEFINITION DE LA STRATEGIE DE CALCUL ---------------------------------
#

#
# RESOLUTION -----------------------------------------------------------
#

TEMPE=THER_LINEAIRE(   MODELE=MOTH,
                           CHAM_MATER=CHMAT,
                            EXCIT=_F(  CHARGE = CHTH)
                         )

#
# ANALYSE DES RESULTATS ------------------------------------------------
#

TPR=CREA_CHAMP(  OPERATION='EXTR', TYPE_CHAM='NOEU_TEMP_R',
NOM_CHAM='TEMP', RESULTAT=TEMPE,
                      NUME_ORDRE=0
                    )

TEST_RESU(CHAM_NO=(



_F( CHAM_GD = TPR, NOEUD = 'N1',    NOM_CMP = 'TEMP',  VALE = 0.00,  PRECISION = 1.E-5,
                                                  CRITERE = 'ABSOLU'),
_F( CHAM_GD = TPR, NOEUD = 'N17',   NOM_CMP = 'TEMP',  VALE = 0.00,  PRECISION = 1.E-5,
                                                  CRITERE = 'ABSOLU'),
_F( CHAM_GD = TPR, NOEUD = 'N13',   NOM_CMP = 'TEMP',  VALE = 0.00,  PRECISION = 1.E-5,
                                                  CRITERE = 'ABSOLU'),
_F( CHAM_GD = TPR, NOEUD = 'N7',    NOM_CMP = 'TEMP',  VALE = 0.00,  PRECISION = 1.E-5,
                                                  CRITERE = 'ABSOLU'),

_F( CHAM_GD = TPR, NOEUD = 'N193',  NOM_CMP = 'TEMP',  VALE = -4.00,  PRECISION = 1.E-2),
_F( CHAM_GD = TPR, NOEUD = 'N209',  NOM_CMP = 'TEMP',  VALE = -4.00,  PRECISION = 1.E-2),
_F( CHAM_GD = TPR, NOEUD = 'N205',  NOM_CMP = 'TEMP',  VALE = -4.00,  PRECISION = 1.E-2),
_F( CHAM_GD = TPR, NOEUD = 'N199',  NOM_CMP = 'TEMP',  VALE = -4.00,  PRECISION = 1.E-2),

_F( CHAM_GD = TPR, NOEUD = 'N385',  NOM_CMP = 'TEMP',  VALE = 4.00,  PRECISION = 1.E-2),
_F( CHAM_GD = TPR, NOEUD = 'N401',  NOM_CMP = 'TEMP',  VALE = 4.00,  PRECISION = 1.E-2),
_F( CHAM_GD = TPR, NOEUD = 'N397',  NOM_CMP = 'TEMP',  VALE = 4.00,  PRECISION = 1.E-2),
_F( CHAM_GD = TPR, NOEUD = 'N391',  NOM_CMP = 'TEMP',  VALE = 4.00,  PRECISION = 1.E-2),

_F( CHAM_GD = TPR, NOEUD = 'N577',  NOM_CMP = 'TEMP',  VALE = 24.00,  PRECISION = 1.E-2),
_F( CHAM_GD = TPR, NOEUD = 'N593',  NOM_CMP = 'TEMP',  VALE = 24.00,  PRECISION = 1.E-2),
_F( CHAM_GD = TPR, NOEUD = 'N589',  NOM_CMP = 'TEMP',  VALE = 24.00,  PRECISION = 1.E-2),
_F( CHAM_GD = TPR, NOEUD = 'N583',  NOM_CMP = 'TEMP',  VALE = 24.00,  PRECISION = 1.E-2),

_F( CHAM_GD = TPR, NOEUD = 'N769',  NOM_CMP = 'TEMP',  VALE = 56.00,  PRECISION = 1.E-2),
_F( CHAM_GD = TPR, NOEUD = 'N785',  NOM_CMP = 'TEMP',  VALE = 56.00,  PRECISION = 1.E-2),
_F( CHAM_GD = TPR, NOEUD = 'N781',  NOM_CMP = 'TEMP',  VALE = 56.00,  PRECISION = 1.E-2),
_F( CHAM_GD = TPR, NOEUD = 'N775',  NOM_CMP = 'TEMP',  VALE = 56.00,  PRECISION = 1.E-2),

_F( CHAM_GD = TPR, NOEUD = 'N961',  NOM_CMP = 'TEMP',  VALE = 100.00,  PRECISION = 1.E-2),
_F( CHAM_GD = TPR, NOEUD = 'N977',  NOM_CMP = 'TEMP',  VALE = 100.00,  PRECISION = 1.E-2),
_F( CHAM_GD = TPR, NOEUD = 'N973',  NOM_CMP = 'TEMP',  VALE = 100.00,  PRECISION = 1.E-2),
_F( CHAM_GD = TPR, NOEUD = 'N967',  NOM_CMP = 'TEMP',  VALE = 100.00,  PRECISION = 1.E-2),

_F( CHAM_GD = TPR, NOEUD = 'N1153', NOM_CMP = 'TEMP',  VALE = 156.00,  PRECISION = 1.E-2),
_F( CHAM_GD = TPR, NOEUD = 'N1169', NOM_CMP = 'TEMP',  VALE = 156.00,  PRECISION = 1.E-2),
_F( CHAM_GD = TPR, NOEUD = 'N1165', NOM_CMP = 'TEMP',  VALE = 156.00,  PRECISION = 1.E-2),
_F( CHAM_GD = TPR, NOEUD = 'N1159', NOM_CMP = 'TEMP',  VALE = 156.00,  PRECISION = 1.E-2),

_F( CHAM_GD = TPR, NOEUD = 'N1345', NOM_CMP = 'TEMP',  VALE = 224.00,  PRECISION = 1.E-2),
_F( CHAM_GD = TPR, NOEUD = 'N1361', NOM_CMP = 'TEMP',  VALE = 224.00,  PRECISION = 1.E-2),
_F( CHAM_GD = TPR, NOEUD = 'N1357', NOM_CMP = 'TEMP',  VALE = 224.00,  PRECISION = 1.E-2),
_F( CHAM_GD = TPR, NOEUD = 'N1351', NOM_CMP = 'TEMP',  VALE = 224.00,  PRECISION = 1.E-2),

_F( CHAM_GD = TPR, NOEUD = 'N1537', NOM_CMP = 'TEMP',  VALE = 304.00,  PRECISION = 1.E-2),
_F( CHAM_GD = TPR, NOEUD = 'N1553', NOM_CMP = 'TEMP',  VALE = 304.00,  PRECISION = 1.E-2),
_F( CHAM_GD = TPR, NOEUD = 'N1549', NOM_CMP = 'TEMP',  VALE = 304.00,  PRECISION = 1.E-2),
_F( CHAM_GD = TPR, NOEUD = 'N1543', NOM_CMP = 'TEMP',  VALE = 304.00,  PRECISION = 1.E-2),

_F( CHAM_GD = TPR, NOEUD = 'N1729', NOM_CMP = 'TEMP',  VALE = 396.00,  PRECISION = 1.E-2),
_F( CHAM_GD = TPR, NOEUD = 'N1745', NOM_CMP = 'TEMP',  VALE = 396.00,  PRECISION = 1.E-2),
_F( CHAM_GD = TPR, NOEUD = 'N1741', NOM_CMP = 'TEMP',  VALE = 396.00,  PRECISION = 1.E-2),
_F( CHAM_GD = TPR, NOEUD = 'N1735', NOM_CMP = 'TEMP',  VALE = 396.00,  PRECISION = 1.E-2),

_F( CHAM_GD = TPR, NOEUD = 'N1921', NOM_CMP = 'TEMP',  VALE = 500.00,  PRECISION = 1.E-5),
_F( CHAM_GD = TPR, NOEUD = 'N1937', NOM_CMP = 'TEMP',  VALE = 500.00,  PRECISION = 1.E-5),
_F( CHAM_GD = TPR, NOEUD = 'N1933', NOM_CMP = 'TEMP',  VALE = 500.00,  PRECISION = 1.E-5),
_F( CHAM_GD = TPR, NOEUD = 'N1927', NOM_CMP = 'TEMP',  VALE = 500.00,  PRECISION = 1.E-5))

          )

#
# FIN ------------------------------------------------------------------
#

FIN()
#
#
