# TITRE BARRE CYLINDRIQUE AVEC CONVECTION
# ======================================================================
# COPYRIGHT (C) 1991 - 2012  EDF R&D                  WWW.CODE-ASTER.ORG
# THIS PROGRAM IS FREE SOFTWARE; YOU CAN REDISTRIBUTE IT AND/OR MODIFY
# IT UNDER THE TERMS OF THE GNU GENERAL PUBLIC LICENSE AS PUBLISHED BY
# THE FREE SOFTWARE FOUNDATION; EITHER VERSION 2 OF THE LICENSE, OR   
# (AT YOUR OPTION) ANY LATER VERSION.                                 
#
# THIS PROGRAM IS DISTRIBUTED IN THE HOPE THAT IT WILL BE USEFUL, BUT 
# WITHOUT ANY WARRANTY; WITHOUT EVEN THE IMPLIED WARRANTY OF          
# MERCHANTABILITY OR FITNESS FOR A PARTICULAR PURPOSE. SEE THE GNU    
# GENERAL PUBLIC LICENSE FOR MORE DETAILS.                            
#
# YOU SHOULD HAVE RECEIVED A COPY OF THE GNU GENERAL PUBLIC LICENSE   
# ALONG WITH THIS PROGRAM; IF NOT, WRITE TO EDF R&D CODE_ASTER,       
#    1 AVENUE DU GENERAL DE GAULLE, 92141 CLAMART CEDEX, FRANCE.      
# ======================================================================
#
# MAILLES : TRIA3 (ET SEG2)
#

DEBUT(  CODE=_F(NIV_PUB_WEB='INTERNET') )

#
# LECTURE DU MAILLAGE --------------------------------------------------
#


MAIL=LIRE_MAILLAGE(FORMAT='MED', )

#
# DEFINITION DES CHARGEMENTS ET DU MATERIAU ----------------------------
#

# ----- MATERIAU


MATER=DEFI_MATERIAU(   THER=_F(  LAMBDA = 33.33,   RHO_CP = 1.) )

#
# AFFECTATIONS: MATERIAU, MODELE, CHARGEMENT ---------------------------
#


CHMAT=AFFE_MATERIAU(   MAILLAGE=MAIL,
                           AFFE=_F(  TOUT = 'OUI',  MATER = MATER)
                        )

MOTH=AFFE_MODELE(   MAILLAGE=MAIL,
                        AFFE=_F(  TOUT = 'OUI',
                               PHENOMENE = 'THERMIQUE',
                               MODELISATION = 'AXIS')
                      )

CHTH=AFFE_CHAR_THER(   MODELE=MOTH,TEMP_IMPO=(
                           _F(  GROUP_NO = 'NOE_AD',   TEMP = 0.),
                           _F(  GROUP_NO = 'NOE_BC',   TEMP = 500.)),
                             ECHANGE=_F(  GROUP_MA = 'MAI_DC', COEF_H = 10.,
                                                      TEMP_EXT = 0.)
                        )

#
# DEFINITION DE LA STRATEGIE DE CALCUL ---------------------------------
#

#
# RESOLUTION -----------------------------------------------------------
#

TEMPE=THER_LINEAIRE(   MODELE=MOTH,
                           CHAM_MATER=CHMAT,
                            EXCIT=_F(  CHARGE = CHTH)
                         )

#
# ANALYSE DES RESULTATS ------------------------------------------------
#

TPR=CREA_CHAMP(  OPERATION='EXTR', TYPE_CHAM='NOEU_TEMP_R',
NOM_CHAM='TEMP', RESULTAT=TEMPE,
                      NUME_ORDRE=0
                    )

TEST_RESU(CHAM_NO=(_F(NOEUD='N1',
                      CRITERE='ABSOLU',
                      NOM_CMP='TEMP',
                      CHAM_GD=TPR,
                      VALE_REFE=0.0,
                      VALE_CALC=0.0,
                      REFERENCE='ANALYTIQUE'),
                   _F(NOEUD='N3',
                      CRITERE='ABSOLU',
                      NOM_CMP='TEMP',
                      CHAM_GD=TPR,
                      VALE_REFE=0.0,
                      VALE_CALC=0.0,
                      REFERENCE='ANALYTIQUE'),
                   _F(NOEUD='N4',
                      CRITERE='ABSOLU',
                      NOM_CMP='TEMP',
                      CHAM_GD=TPR,
                      VALE_REFE=0.0,
                      VALE_CALC=0.0,
                      REFERENCE='ANALYTIQUE'),
                   _F(NOEUD='N61',
                      NOM_CMP='TEMP',
                      PRECISION=1.E-2,
                      CHAM_GD=TPR,
                      VALE_CALC=0.370336506,
                      VALE_REFE=0.36940000000000001,
                      REFERENCE='ANALYTIQUE',),
                   _F(NOEUD='N63',
                      NOM_CMP='TEMP',
                      PRECISION=1.E-2,
                      CHAM_GD=TPR,
                      VALE_CALC=0.370062272,
                      VALE_REFE=0.36940000000000001,
                      REFERENCE='ANALYTIQUE',),
                   _F(NOEUD='N64',
                      NOM_CMP='TEMP',
                      PRECISION=1.E-2,
                      CHAM_GD=TPR,
                      VALE_CALC=0.369749374,
                      VALE_REFE=0.36940000000000001,
                      REFERENCE='ANALYTIQUE',),
                   _F(NOEUD='N121',
                      NOM_CMP='TEMP',
                      PRECISION=1.E-2,
                      CHAM_GD=TPR,
                      VALE_CALC=0.974107929,
                      VALE_REFE=0.9718,
                      REFERENCE='ANALYTIQUE',),
                   _F(NOEUD='N123',
                      NOM_CMP='TEMP',
                      PRECISION=1.E-2,
                      CHAM_GD=TPR,
                      VALE_CALC=0.973386603,
                      VALE_REFE=0.9718,
                      REFERENCE='ANALYTIQUE',),
                   _F(NOEUD='N124',
                      NOM_CMP='TEMP',
                      PRECISION=1.E-2,
                      CHAM_GD=TPR,
                      VALE_CALC=0.972563798,
                      VALE_REFE=0.9718,
                      REFERENCE='ANALYTIQUE',),
                   _F(NOEUD='N181',
                      NOM_CMP='TEMP',
                      PRECISION=1.E-2,
                      CHAM_GD=TPR,
                      VALE_CALC=2.191890673,
                      VALE_REFE=2.1869999999999998,
                      REFERENCE='ANALYTIQUE',),
                   _F(NOEUD='N183',
                      NOM_CMP='TEMP',
                      PRECISION=1.E-2,
                      CHAM_GD=TPR,
                      VALE_CALC=2.190267582,
                      VALE_REFE=2.1869999999999998,
                      REFERENCE='ANALYTIQUE',),
                   _F(NOEUD='N184',
                      NOM_CMP='TEMP',
                      PRECISION=1.E-2,
                      CHAM_GD=TPR,
                      VALE_CALC=2.188416104,
                      VALE_REFE=2.1869999999999998,
                      REFERENCE='ANALYTIQUE',),
                   _F(NOEUD='N241',
                      NOM_CMP='TEMP',
                      PRECISION=1.E-2,
                      CHAM_GD=TPR,
                      VALE_CALC=4.791291261,
                      VALE_REFE=4.7815000000000003,
                      REFERENCE='ANALYTIQUE',),
                   _F(NOEUD='N243',
                      NOM_CMP='TEMP',
                      PRECISION=1.E-2,
                      CHAM_GD=TPR,
                      VALE_CALC=4.787743311,
                      VALE_REFE=4.7815000000000003,
                      REFERENCE='ANALYTIQUE',),
                   _F(NOEUD='N244',
                      NOM_CMP='TEMP',
                      PRECISION=1.E-2,
                      CHAM_GD=TPR,
                      VALE_CALC=4.783696181,
                      VALE_REFE=4.7815000000000003,
                      REFERENCE='ANALYTIQUE',),
                   _F(NOEUD='N301',
                      NOM_CMP='TEMP',
                      PRECISION=1.E-2,
                      CHAM_GD=TPR,
                      VALE_CALC=10.410795262,
                      VALE_REFE=10.391999999999999,
                      REFERENCE='ANALYTIQUE',),
                   _F(NOEUD='N303',
                      NOM_CMP='TEMP',
                      PRECISION=1.E-2,
                      CHAM_GD=TPR,
                      VALE_CALC=10.403086077,
                      VALE_REFE=10.391999999999999,
                      REFERENCE='ANALYTIQUE',),
                   _F(NOEUD='N304',
                      NOM_CMP='TEMP',
                      PRECISION=1.E-2,
                      CHAM_GD=TPR,
                      VALE_CALC=10.394301164,
                      VALE_REFE=10.391999999999999,
                      REFERENCE='ANALYTIQUE',),
                   _F(NOEUD='N361',
                      NOM_CMP='TEMP',
                      PRECISION=1.E-2,
                      CHAM_GD=TPR,
                      VALE_CALC=22.592557496,
                      VALE_REFE=22.555,
                      REFERENCE='ANALYTIQUE',),
                   _F(NOEUD='N363',
                      NOM_CMP='TEMP',
                      PRECISION=1.E-2,
                      CHAM_GD=TPR,
                      VALE_CALC=22.575827728,
                      VALE_REFE=22.555,
                      REFERENCE='ANALYTIQUE',),
                   _F(NOEUD='N364',
                      NOM_CMP='TEMP',
                      PRECISION=1.E-2,
                      CHAM_GD=TPR,
                      VALE_CALC=22.556742499,
                      VALE_REFE=22.555,
                      REFERENCE='ANALYTIQUE',),
                   _F(NOEUD='N421',
                      NOM_CMP='TEMP',
                      PRECISION=1.E-2,
                      CHAM_GD=TPR,
                      VALE_CALC=49.015114562,
                      VALE_REFE=48.944000000000003,
                      REFERENCE='ANALYTIQUE',),
                   _F(NOEUD='N423',
                      NOM_CMP='TEMP',
                      PRECISION=1.E-2,
                      CHAM_GD=TPR,
                      VALE_CALC=48.978818926,
                      VALE_REFE=48.944000000000003,
                      REFERENCE='ANALYTIQUE',),
                   _F(NOEUD='N424',
                      NOM_CMP='TEMP',
                      PRECISION=1.E-2,
                      CHAM_GD=TPR,
                      VALE_CALC=48.937432041,
                      VALE_REFE=48.944000000000003,
                      REFERENCE='ANALYTIQUE',),
                   _F(NOEUD='N481',
                      NOM_CMP='TEMP',
                      PRECISION=1.E-2,
                      CHAM_GD=TPR,
                      VALE_CALC=106.333459652,
                      VALE_REFE=106.2,
                      REFERENCE='ANALYTIQUE',),
                   _F(NOEUD='N483',
                      NOM_CMP='TEMP',
                      PRECISION=1.E-2,
                      CHAM_GD=TPR,
                      VALE_CALC=106.254719927,
                      VALE_REFE=106.2,
                      REFERENCE='ANALYTIQUE',),
                   _F(NOEUD='N484',
                      NOM_CMP='TEMP',
                      PRECISION=1.E-2,
                      CHAM_GD=TPR,
                      VALE_CALC=106.164902389,
                      VALE_REFE=106.2,
                      REFERENCE='ANALYTIQUE',),
                   _F(NOEUD='N541',
                      NOM_CMP='TEMP',
                      PRECISION=1.E-2,
                      CHAM_GD=TPR,
                      VALE_CALC=230.677161148,
                      VALE_REFE=230.44,
                      REFERENCE='ANALYTIQUE',),
                   _F(NOEUD='N543',
                      NOM_CMP='TEMP',
                      PRECISION=1.E-2,
                      CHAM_GD=TPR,
                      VALE_CALC=230.506344816,
                      VALE_REFE=230.44,
                      REFERENCE='ANALYTIQUE',),
                   _F(NOEUD='N544',
                      NOM_CMP='TEMP',
                      PRECISION=1.E-2,
                      CHAM_GD=TPR,
                      VALE_CALC=230.311549826,
                      VALE_REFE=230.44,
                      REFERENCE='ANALYTIQUE',),
                   _F(NOEUD='N601',
                      NOM_CMP='TEMP',
                      CHAM_GD=TPR,
                      VALE_REFE=500.0,
                      VALE_CALC=500.0,
                      REFERENCE='ANALYTIQUE'),
                   _F(NOEUD='N603',
                      NOM_CMP='TEMP',
                      CHAM_GD=TPR,
                      VALE_REFE=500.0,
                      VALE_CALC=500.0,
                      REFERENCE='ANALYTIQUE'),
                   _F(NOEUD='N604',
                      NOM_CMP='TEMP',
                      CHAM_GD=TPR,
                      VALE_REFE=500.0,
                      VALE_CALC=500.0,
                      REFERENCE='ANALYTIQUE'),
                   ),
          )

FIN()
#
#
