# MODIF  DATE 02/03/2004   AUTEUR CIBHHPD S.VANDENBERGHE 
# TITRE CYLINDRE CREUX ORTHOTROPE
#            CONFIGURATION MANAGEMENT OF EDF VERSION
# ======================================================================
# COPYRIGHT (C) 1991 - 2001  EDF R&D                  WWW.CODE-ASTER.ORG
# THIS PROGRAM IS FREE SOFTWARE; YOU CAN REDISTRIBUTE IT AND/OR MODIFY
# IT UNDER THE TERMS OF THE GNU GENERAL PUBLIC LICENSE AS PUBLISHED BY
# THE FREE SOFTWARE FOUNDATION; EITHER VERSION 2 OF THE LICENSE, OR   
# (AT YOUR OPTION) ANY LATER VERSION.                                 
#
# THIS PROGRAM IS DISTRIBUTED IN THE HOPE THAT IT WILL BE USEFUL, BUT 
# WITHOUT ANY WARRANTY; WITHOUT EVEN THE IMPLIED WARRANTY OF          
# MERCHANTABILITY OR FITNESS FOR A PARTICULAR PURPOSE. SEE THE GNU    
# GENERAL PUBLIC LICENSE FOR MORE DETAILS.                            
#
# YOU SHOULD HAVE RECEIVED A COPY OF THE GNU GENERAL PUBLIC LICENSE   
# ALONG WITH THIS PROGRAM; IF NOT, WRITE TO EDF R&D CODE_ASTER,       
#    1 AVENUE DU GENERAL DE GAULLE, 92141 CLAMART CEDEX, FRANCE.      
# ======================================================================
#
# MAILLES : TRIA3 (ET SEG2)
#
# VOIR AL 96-176 POUR LA JUSTIFICATION DE CERTAINES TOLERANCES
#

DEBUT(  CODE=_F( NOM = 'TPLA07A',NIV_PUB_WEB='INTERNET') )

#
# LECTURE DU MAILLAGE --------------------------------------------------
#


MAIL=LIRE_MAILLAGE( )

#
# DEFINITION DES CHARGEMENTS ET DU MATERIAU ----------------------------
#

# ----- MATERIAU


MATER=DEFI_MATERIAU(   THER_ORTH=_F(  LAMBDA_L = 2.89, LAMBDA_T = 40.00,
                                        LAMBDA_N = 2.89,   RHO_CP = 1.)
                         )

#
# AFFECTATIONS: MATERIAU, MODELE, CHARGEMENT ---------------------------
#


CHMAT=AFFE_MATERIAU(   MAILLAGE=MAIL,
                           AFFE=_F(  TOUT = 'OUI',  MATER = MATER)
                        )

MOTH=AFFE_MODELE(   MAILLAGE=MAIL,
                        AFFE=_F(  TOUT = 'OUI',
                               PHENOMENE = 'THERMIQUE',
                               MODELISATION = 'AXIS')
                      )

ORIEN=AFFE_CARA_ELEM(   MODELE=MOTH,
                            MASSIF=_F(  GROUP_MA = 'MATIERE',
                                     ANGL_REP = (0.,0.,0.,))
                         )

#  FLU_IMP = DEFI_FONCTION ( NOM_PARA:'Y'
#                            VALE: ( 0.0D0 ,-500.D0
#                                    0.4D0 , 500.D0 )
#                            INTERPOL:'NON'
#                          );


FLU_AB=DEFI_CONSTANTE(   VALE=-500.E0 )

FLU_CD=DEFI_CONSTANTE(   VALE=+500.E0 )

HCV_INT=DEFI_CONSTANTE(   VALE=377.E0 )

TEX_INT=DEFI_FONCTION(  NOM_PARA='Y',
                             VALE=( 0.0E0,  130.E0,
                                    0.4E0,  135.E0, ),
                             PROL_DROITE='LINEAIRE',
                            PROL_GAUCHE='LINEAIRE'
                          )

HCV_EXT=DEFI_CONSTANTE(   VALE=339.3E0 )

TEX_EXT=DEFI_FONCTION(  NOM_PARA='Y',
                             VALE=( 0.0E0,   20.E0,
                                    0.4E0,   25.E0, ),
                             PROL_DROITE='LINEAIRE',
                            PROL_GAUCHE='LINEAIRE'
                          )

CHTH=AFFE_CHAR_THER_F(   MODELE=MOTH,FLUX_REP=(
                            _F(  GROUP_MA = 'MAI_AB',   FLUN = FLU_AB),
                            _F(  GROUP_MA = 'MAI_CD',   FLUN = FLU_CD))
                        )

CHTH1=AFFE_CHAR_THER_F(   MODELE=MOTH,ECHANGE=(
                             _F(  GROUP_MA = 'MAI_DA', COEF_H = HCV_INT,
                                                     TEMP_EXT = TEX_INT),
                             _F(  GROUP_MA = 'MAI_BC', COEF_H = HCV_EXT,
                                                     TEMP_EXT = TEX_EXT))
                        )

#
# DEFINITION DE LA STRATEGIE DE CALCUL ---------------------------------
#

#
# RESOLUTION -----------------------------------------------------------
#

TEMPE=THER_LINEAIRE(   MODELE=MOTH,
                           CHAM_MATER=CHMAT,EXCIT=(
                            _F(  CHARGE = CHTH),
                            _F(  CHARGE = CHTH1)),
                            CARA_ELEM=ORIEN
                         )

#
# ANALYSE DES RESULTATS ------------------------------------------------
#


TEMPE=CALC_ELEM(reuse=TEMPE, RESULTAT=TEMPE,
                MODELE=MOTH,
                CARA_ELEM=ORIEN,
                EXCIT=(_F(  CHARGE = CHTH),
                       _F(  CHARGE = CHTH1)),
                CHAM_MATER=CHMAT,
                NUME_ORDRE=0,
                OPTION='FLUX_ELNO_TEMP'
                          )

TEST_RESU(RESU=(



_F( RESULTAT = TEMPE, NOEUD = 'N1', NUME_ORDRE=0, NOM_CHAM='TEMP',   NOM_CMP = 'TEMP',
VALE = 100.01,  PRECISION = 1.E-2),
_F( RESULTAT = TEMPE, NOEUD = 'N6', NUME_ORDRE=0, NOM_CHAM='TEMP',   NOM_CMP = 'TEMP',
VALE = 100.01,  PRECISION = 1.E-2),
_F( RESULTAT = TEMPE, NOEUD = 'N2', NUME_ORDRE=0, NOM_CHAM='TEMP',   NOM_CMP = 'TEMP',
VALE = 81.90,  PRECISION = 1.E-2),
_F( RESULTAT = TEMPE, NOEUD = 'N3', NUME_ORDRE=0, NOM_CHAM='TEMP',   NOM_CMP = 'TEMP',
VALE = 66.22,  PRECISION = 1.E-2),
_F( RESULTAT = TEMPE, NOEUD = 'N4', NUME_ORDRE=0, NOM_CHAM='TEMP',   NOM_CMP = 'TEMP',
VALE = 52.38,  PRECISION = 1.E-2),
_F( RESULTAT = TEMPE, NOEUD = 'N5', NUME_ORDRE=0, NOM_CHAM='TEMP',   NOM_CMP = 'TEMP',
VALE = 40.01,  PRECISION = 1.E-2),

_F( RESULTAT = TEMPE, NOEUD = 'N101', NUME_ORDRE=0, NOM_CHAM='TEMP', NOM_CMP = 'TEMP',
VALE = 102.51,  PRECISION = 1.E-2),
_F( RESULTAT = TEMPE, NOEUD = 'N102', NUME_ORDRE=0, NOM_CHAM='TEMP', NOM_CMP = 'TEMP',
VALE = 84.40,  PRECISION = 1.E-2),
_F( RESULTAT = TEMPE, NOEUD = 'N103', NUME_ORDRE=0, NOM_CHAM='TEMP', NOM_CMP = 'TEMP',
VALE = 68.72,  PRECISION = 1.E-2),
_F( RESULTAT = TEMPE, NOEUD = 'N104', NUME_ORDRE=0, NOM_CHAM='TEMP', NOM_CMP = 'TEMP',
VALE = 54.88,  PRECISION = 1.E-2),
_F( RESULTAT = TEMPE, NOEUD = 'N105', NUME_ORDRE=0, NOM_CHAM='TEMP', NOM_CMP = 'TEMP',
VALE = 42.51,  PRECISION = 1.E-2),

_F( RESULTAT = TEMPE, NOEUD = 'N201', NUME_ORDRE=0, NOM_CHAM='TEMP', NOM_CMP = 'TEMP',
VALE = 105.01,  PRECISION = 1.E-2),
_F( RESULTAT = TEMPE, NOEUD = 'N202', NUME_ORDRE=0, NOM_CHAM='TEMP', NOM_CMP = 'TEMP',
VALE = 86.90,  PRECISION = 1.E-2),
_F( RESULTAT = TEMPE, NOEUD = 'N203', NUME_ORDRE=0, NOM_CHAM='TEMP', NOM_CMP = 'TEMP',
VALE = 71.22,  PRECISION = 1.E-2),
_F( RESULTAT = TEMPE, NOEUD = 'N204', NUME_ORDRE=0, NOM_CHAM='TEMP', NOM_CMP = 'TEMP',
VALE = 57.38,  PRECISION = 1.E-2),
_F( RESULTAT = TEMPE, NOEUD = 'N205', NUME_ORDRE=0, NOM_CHAM='TEMP', NOM_CMP = 'TEMP',
VALE = 45.00,  PRECISION = 1.E-2),


#
# PARTIE INFERIEURE Z=0
#
# FLUY SUR AB

_F( RESULTAT = TEMPE, MAILLE = 'M1', NUME_ORDRE=0, NOM_CHAM='FLUX_ELNO_TEMP',
             NOEUD = 'N1',    NOM_CMP = 'FLUY',  VALE = -500.,  PRECISION = 3.E-2),
_F( RESULTAT = TEMPE, MAILLE = 'M1', NUME_ORDRE=0, NOM_CHAM='FLUX_ELNO_TEMP',
             NOEUD = 'N2',    NOM_CMP = 'FLUY',  VALE = -500.,  PRECISION = 3.E-2),

_F( RESULTAT = TEMPE, MAILLE = 'M2', NUME_ORDRE=0, NOM_CHAM='FLUX_ELNO_TEMP',
             NOEUD = 'N1',    NOM_CMP = 'FLUY',  VALE = -500.,  PRECISION = 65.E-2),

_F( RESULTAT = TEMPE, MAILLE = 'M81', NUME_ORDRE=0, NOM_CHAM='FLUX_ELNO_TEMP',
             NOEUD = 'N2',    NOM_CMP = 'FLUY',  VALE = -500.,  PRECISION = 4.E-2),
_F( RESULTAT = TEMPE, MAILLE = 'M81',NUME_ORDRE=0, NOM_CHAM='FLUX_ELNO_TEMP',
             NOEUD = 'N3',    NOM_CMP = 'FLUY',  VALE = -500.,  PRECISION = 4.E-2),

_F( RESULTAT = TEMPE, MAILLE = 'M82', NUME_ORDRE=0, NOM_CHAM='FLUX_ELNO_TEMP',
             NOEUD = 'N2',    NOM_CMP = 'FLUY',  VALE = -500.,  PRECISION = 3.E-2),

_F( RESULTAT = TEMPE, MAILLE = 'M161', NUME_ORDRE=0, NOM_CHAM='FLUX_ELNO_TEMP',
             NOEUD = 'N3',    NOM_CMP = 'FLUY',  VALE = -500.,  PRECISION = 7.E-2),
_F( RESULTAT = TEMPE, MAILLE = 'M161', NUME_ORDRE=0, NOM_CHAM='FLUX_ELNO_TEMP',
             NOEUD = 'N4',    NOM_CMP = 'FLUY',  VALE = -500.,  PRECISION = 7.E-2),

_F( RESULTAT = TEMPE, MAILLE = 'M162', NUME_ORDRE=0, NOM_CHAM='FLUX_ELNO_TEMP',
             NOEUD = 'N3',    NOM_CMP = 'FLUY',  VALE = -500.,  PRECISION = 4.E-2),

_F( RESULTAT = TEMPE, MAILLE = 'M241', NUME_ORDRE=0, NOM_CHAM='FLUX_ELNO_TEMP',
             NOEUD = 'N4',    NOM_CMP = 'FLUY',  VALE = -500.,  PRECISION = 31.E-2),
_F( RESULTAT = TEMPE, MAILLE = 'M241', NUME_ORDRE=0, NOM_CHAM='FLUX_ELNO_TEMP',
             NOEUD = 'N5',    NOM_CMP = 'FLUY',  VALE = -500.,  PRECISION = 31.E-2),

_F( RESULTAT = TEMPE, MAILLE = 'M242', NUME_ORDRE=0, NOM_CHAM='FLUX_ELNO_TEMP',
             NOEUD = 'N4',    NOM_CMP = 'FLUY',  VALE = -500.,  PRECISION = 7.E-2),

# FLUX RAYON INTERIEUR

_F( RESULTAT = TEMPE, MAILLE = 'M1', NUME_ORDRE=0, NOM_CHAM='FLUX_ELNO_TEMP',
             NOEUD = 'N1',    NOM_CMP = 'FLUX',  VALE = 11310.,  PRECISION = 9.E-2),

_F( RESULTAT = TEMPE, MAILLE = 'M2', NUME_ORDRE=0, NOM_CHAM='FLUX_ELNO_TEMP',
             NOEUD = 'N1',    NOM_CMP = 'FLUX',  VALE = 11310.,  PRECISION = 8.E-2),
_F( RESULTAT = TEMPE, MAILLE = 'M2', NUME_ORDRE=0, NOM_CHAM='FLUX_ELNO_TEMP',
             NOEUD = 'N6',    NOM_CMP = 'FLUX',  VALE = 11310.,  PRECISION = 8.E-2),

# FLUX EN RAYON EXTERIEUR

_F( RESULTAT = TEMPE, MAILLE = 'M241', NUME_ORDRE=0, NOM_CHAM='FLUX_ELNO_TEMP',
             NOEUD = 'N5',    NOM_CMP = 'FLUX',  VALE = 6786.,  PRECISION = 6.E-2),
_F( RESULTAT = TEMPE, MAILLE = 'M241', NUME_ORDRE=0, NOM_CHAM='FLUX_ELNO_TEMP',
             NOEUD = 'N10',   NOM_CMP = 'FLUX',  VALE = 6786.,  PRECISION = 6.E-2),

# PARTIE MOYENNE Z=0.2
#
_F( RESULTAT = TEMPE, MAILLE = 'M40', NUME_ORDRE=0, NOM_CHAM='FLUX_ELNO_TEMP',
             NOEUD = 'N101',  NOM_CMP = 'FLUY',  VALE = -500.,  PRECISION = 1.E-2),
_F( RESULTAT = TEMPE, MAILLE = 'M41', NUME_ORDRE=0, NOM_CHAM='FLUX_ELNO_TEMP',
             NOEUD = 'N101',  NOM_CMP = 'FLUY',  VALE = -500.,  PRECISION = 1.E-2),
_F( RESULTAT = TEMPE, MAILLE = 'M42', NUME_ORDRE=0, NOM_CHAM='FLUX_ELNO_TEMP',
             NOEUD = 'N101',  NOM_CMP = 'FLUY',  VALE = -500.,  PRECISION = 1.E-2),

_F( RESULTAT = TEMPE, MAILLE = 'M39', NUME_ORDRE=0, NOM_CHAM='FLUX_ELNO_TEMP',
             NOEUD = 'N102',  NOM_CMP = 'FLUY',  VALE = -500.,  PRECISION = 1.E-2),
_F( RESULTAT = TEMPE, MAILLE = 'M40', NUME_ORDRE=0, NOM_CHAM='FLUX_ELNO_TEMP',
             NOEUD = 'N102',  NOM_CMP = 'FLUY',  VALE = -500.,  PRECISION = 1.E-2),
_F( RESULTAT = TEMPE, MAILLE = 'M41', NUME_ORDRE=0, NOM_CHAM='FLUX_ELNO_TEMP',
             NOEUD = 'N102',  NOM_CMP = 'FLUY',  VALE = -500.,  PRECISION = 1.E-2),
_F( RESULTAT = TEMPE, MAILLE = 'M120', NUME_ORDRE=0, NOM_CHAM='FLUX_ELNO_TEMP',
             NOEUD = 'N102',  NOM_CMP = 'FLUY',  VALE = -500.,  PRECISION = 1.E-2),
_F( RESULTAT = TEMPE, MAILLE = 'M121', NUME_ORDRE=0, NOM_CHAM='FLUX_ELNO_TEMP',
             NOEUD = 'N102',  NOM_CMP = 'FLUY',  VALE = -500.,  PRECISION = 1.E-2),
_F( RESULTAT = TEMPE, MAILLE = 'M122', NUME_ORDRE=0, NOM_CHAM='FLUX_ELNO_TEMP',
             NOEUD = 'N102',  NOM_CMP = 'FLUY',  VALE = -500.,  PRECISION = 1.E-2),

_F( RESULTAT = TEMPE, MAILLE = 'M119', NUME_ORDRE=0, NOM_CHAM='FLUX_ELNO_TEMP',
             NOEUD = 'N103',  NOM_CMP = 'FLUY',  VALE = -500.,  PRECISION = 1.E-2),
_F( RESULTAT = TEMPE, MAILLE = 'M120', NUME_ORDRE=0, NOM_CHAM='FLUX_ELNO_TEMP',
             NOEUD = 'N103',  NOM_CMP = 'FLUY',  VALE = -500.,  PRECISION = 1.E-2),
_F( RESULTAT = TEMPE, MAILLE = 'M121', NUME_ORDRE=0, NOM_CHAM='FLUX_ELNO_TEMP',
             NOEUD = 'N103',  NOM_CMP = 'FLUY',  VALE = -500.,  PRECISION = 1.E-2),
_F( RESULTAT = TEMPE, MAILLE = 'M200', NUME_ORDRE=0, NOM_CHAM='FLUX_ELNO_TEMP',
             NOEUD = 'N103',  NOM_CMP = 'FLUY',  VALE = -500.,  PRECISION = 1.E-2),
_F( RESULTAT = TEMPE, MAILLE = 'M201', NUME_ORDRE=0, NOM_CHAM='FLUX_ELNO_TEMP',
             NOEUD = 'N103',  NOM_CMP = 'FLUY',  VALE = -500.,  PRECISION = 1.E-2),
_F( RESULTAT = TEMPE, MAILLE = 'M202', NUME_ORDRE=0, NOM_CHAM='FLUX_ELNO_TEMP',
             NOEUD = 'N103',  NOM_CMP = 'FLUY',  VALE = -500.,  PRECISION = 1.E-2),

_F( RESULTAT = TEMPE, MAILLE = 'M199', NUME_ORDRE=0, NOM_CHAM='FLUX_ELNO_TEMP',
             NOEUD = 'N104',  NOM_CMP = 'FLUY',  VALE = -500.,  PRECISION = 1.E-2),
_F( RESULTAT = TEMPE, MAILLE = 'M200', NUME_ORDRE=0, NOM_CHAM='FLUX_ELNO_TEMP',
             NOEUD = 'N104',  NOM_CMP = 'FLUY',  VALE = -500.,  PRECISION = 1.E-2),
_F( RESULTAT = TEMPE, MAILLE = 'M201', NUME_ORDRE=0, NOM_CHAM='FLUX_ELNO_TEMP',
             NOEUD = 'N104',  NOM_CMP = 'FLUY',  VALE = -500.,  PRECISION = 1.E-2),
_F( RESULTAT = TEMPE, MAILLE = 'M280', NUME_ORDRE=0, NOM_CHAM='FLUX_ELNO_TEMP',
             NOEUD = 'N104',  NOM_CMP = 'FLUY',  VALE = -500.,  PRECISION = 1.E-2),
_F( RESULTAT = TEMPE, MAILLE = 'M281', NUME_ORDRE=0, NOM_CHAM='FLUX_ELNO_TEMP',
             NOEUD = 'N104',  NOM_CMP = 'FLUY',  VALE = -500.,  PRECISION = 1.E-2),
_F( RESULTAT = TEMPE, MAILLE = 'M282', NUME_ORDRE=0, NOM_CHAM='FLUX_ELNO_TEMP',
             NOEUD = 'N104',  NOM_CMP = 'FLUY',  VALE = -500.,  PRECISION = 1.E-2),


_F( RESULTAT = TEMPE, MAILLE = 'M279', NUME_ORDRE=0, NOM_CHAM='FLUX_ELNO_TEMP',
             NOEUD = 'N105',  NOM_CMP = 'FLUY',  VALE = -500.,  PRECISION = 1.E-2),
_F( RESULTAT = TEMPE, MAILLE = 'M280', NUME_ORDRE=0, NOM_CHAM='FLUX_ELNO_TEMP',
             NOEUD = 'N105',  NOM_CMP = 'FLUY',  VALE = -500.,  PRECISION = 1.E-2),
_F( RESULTAT = TEMPE, MAILLE = 'M281', NUME_ORDRE=0, NOM_CHAM='FLUX_ELNO_TEMP',
             NOEUD = 'N105',  NOM_CMP = 'FLUY',  VALE = -500.,  PRECISION = 1.E-2),

# FLUX RAYON INTERIEUR

_F( RESULTAT = TEMPE, MAILLE = 'M40', NUME_ORDRE=0, NOM_CHAM='FLUX_ELNO_TEMP',
           NOEUD = 'N101',    NOM_CMP = 'FLUX',  VALE = 11310.,  PRECISION = 8.E-2),
_F( RESULTAT = TEMPE, MAILLE = 'M41', NUME_ORDRE=0, NOM_CHAM='FLUX_ELNO_TEMP',
           NOEUD = 'N101',    NOM_CMP = 'FLUX',  VALE = 11310.,  PRECISION = 8.E-2),
_F( RESULTAT = TEMPE, MAILLE = 'M42', NUME_ORDRE=0, NOM_CHAM='FLUX_ELNO_TEMP',
           NOEUD = 'N101',    NOM_CMP = 'FLUX',  VALE = 11310.,  PRECISION = 8.E-2),

# FLUX EN RAYON EXTERIEUR

_F( RESULTAT = TEMPE, MAILLE = 'M279', NUME_ORDRE=0, NOM_CHAM='FLUX_ELNO_TEMP',
             NOEUD = 'N105',    NOM_CMP = 'FLUX',  VALE = 6786.,  PRECISION = 6.E-2),
_F( RESULTAT = TEMPE, MAILLE = 'M280', NUME_ORDRE=0, NOM_CHAM='FLUX_ELNO_TEMP',
             NOEUD = 'N105',    NOM_CMP = 'FLUX',  VALE = 6786.,  PRECISION = 6.E-2),
_F( RESULTAT = TEMPE, MAILLE = 'M281', NUME_ORDRE=0, NOM_CHAM='FLUX_ELNO_TEMP',
             NOEUD = 'N105',    NOM_CMP = 'FLUX',  VALE = 6786.,  PRECISION = 6.E-2),
#
# PARTIE SUPERIEURE Z=0.4
#
_F( RESULTAT = TEMPE, MAILLE = 'M80', NUME_ORDRE=0, NOM_CHAM='FLUX_ELNO_TEMP',
             NOEUD = 'N201',  NOM_CMP = 'FLUY',  VALE = -500.,  PRECISION = 66.E-2),
_F( RESULTAT = TEMPE, MAILLE = 'M80', NUME_ORDRE=0, NOM_CHAM='FLUX_ELNO_TEMP',
             NOEUD = 'N202',  NOM_CMP = 'FLUY',  VALE = -500.,  PRECISION = 66.E-2),

_F( RESULTAT = TEMPE, MAILLE = 'M79', NUME_ORDRE=0, NOM_CHAM='FLUX_ELNO_TEMP',
             NOEUD = 'N202',  NOM_CMP = 'FLUY',  VALE = -500.,  PRECISION = 3.E-2),

_F( RESULTAT = TEMPE, MAILLE = 'M160', NUME_ORDRE=0, NOM_CHAM='FLUX_ELNO_TEMP',
             NOEUD = 'N202',  NOM_CMP = 'FLUY',  VALE = -500.,  PRECISION = 3.E-2),
_F( RESULTAT = TEMPE, MAILLE = 'M160', NUME_ORDRE=0, NOM_CHAM='FLUX_ELNO_TEMP',
             NOEUD = 'N203', NOM_CMP = 'FLUY',  VALE = -500.,  PRECISION = 3.E-2),

_F( RESULTAT = TEMPE, MAILLE = 'M159', NUME_ORDRE=0, NOM_CHAM='FLUX_ELNO_TEMP',
             NOEUD = 'N203',  NOM_CMP = 'FLUY',  VALE = -500.,  PRECISION = 4.E-2),

_F( RESULTAT = TEMPE, MAILLE = 'M240', NUME_ORDRE=0, NOM_CHAM='FLUX_ELNO_TEMP',
             NOEUD = 'N203',  NOM_CMP = 'FLUY',  VALE = -500.,  PRECISION = 4.E-2),
_F( RESULTAT = TEMPE, MAILLE = 'M240', NUME_ORDRE=0, NOM_CHAM='FLUX_ELNO_TEMP',
             NOEUD = 'N204',  NOM_CMP = 'FLUY',  VALE = -500.,  PRECISION = 4.E-2),

_F( RESULTAT = TEMPE, MAILLE = 'M239', NUME_ORDRE=0, NOM_CHAM='FLUX_ELNO_TEMP',
             NOEUD = 'N204',  NOM_CMP = 'FLUY',  VALE = -500.,  PRECISION = 7.E-2),

_F( RESULTAT = TEMPE, MAILLE = 'M320', NUME_ORDRE=0, NOM_CHAM='FLUX_ELNO_TEMP',
             NOEUD = 'N204',  NOM_CMP = 'FLUY',  VALE = -500.,  PRECISION = 7.E-2),
_F( RESULTAT = TEMPE, MAILLE = 'M320', NUME_ORDRE=0, NOM_CHAM='FLUX_ELNO_TEMP',
             NOEUD = 'N205',  NOM_CMP = 'FLUY',  VALE = -500.,  PRECISION = 7.E-2),

_F( RESULTAT = TEMPE, MAILLE = 'M319', NUME_ORDRE=0, NOM_CHAM='FLUX_ELNO_TEMP',
             NOEUD = 'N205',  NOM_CMP = 'FLUY',  VALE = -500.,  PRECISION = 31.E-2),

# FLUX RAYON INTERIEUR

_F( RESULTAT = TEMPE, MAILLE = 'M80', NUME_ORDRE=0, NOM_CHAM='FLUX_ELNO_TEMP',
           NOEUD = 'N201',    NOM_CMP = 'FLUX',  VALE = 11310.,  PRECISION = 7.E-2),

# FLUX EN RAYON EXTERIEUR

_F( RESULTAT = TEMPE, MAILLE = 'M319', NUME_ORDRE=0, NOM_CHAM='FLUX_ELNO_TEMP',
             NOEUD = 'N205',    NOM_CMP = 'FLUX',  VALE = 6786.,  PRECISION = 6.E-2),
_F( RESULTAT = TEMPE, MAILLE = 'M320', NUME_ORDRE=0, NOM_CHAM='FLUX_ELNO_TEMP',
             NOEUD = 'N205',    NOM_CMP = 'FLUX',  VALE = 6786.,  PRECISION = 6.E-2))

          )

#
# FIN ------------------------------------------------------------------
#

FIN()
#
#
