# TITRE DEGAGEMENT DE PUISSANCE DANS UN CYLINDRE CREUX EN THERMIQUE
#            CONFIGURATION MANAGEMENT OF EDF VERSION
# ======================================================================
# COPYRIGHT (C) 1991 - 2012  EDF R&D                  WWW.CODE-ASTER.ORG
# THIS PROGRAM IS FREE SOFTWARE; YOU CAN REDISTRIBUTE IT AND/OR MODIFY
# IT UNDER THE TERMS OF THE GNU GENERAL PUBLIC LICENSE AS PUBLISHED BY
# THE FREE SOFTWARE FOUNDATION; EITHER VERSION 2 OF THE LICENSE, OR
# (AT YOUR OPTION) ANY LATER VERSION.
#
# THIS PROGRAM IS DISTRIBUTED IN THE HOPE THAT IT WILL BE USEFUL, BUT
# WITHOUT ANY WARRANTY; WITHOUT EVEN THE IMPLIED WARRANTY OF
# MERCHANTABILITY OR FITNESS FOR A PARTICULAR PURPOSE. SEE THE GNU
# GENERAL PUBLIC LICENSE FOR MORE DETAILS.
#
# YOU SHOULD HAVE RECEIVED A COPY OF THE GNU GENERAL PUBLIC LICENSE
# ALONG WITH THIS PROGRAM; IF NOT, WRITE TO EDF R&D CODE_ASTER,
#    1 AVENUE DU GENERAL DE GAULLE, 92141 CLAMART CEDEX, FRANCE.
# ======================================================================
#       STATIONNAIRE LINEAIRE
#
# MAILLES : QUAD9 AXIS
#

DEBUT(  CODE=_F( NOM = 'TPLA04A',NIV_PUB_WEB='INTERNET')
      )

#
# LECTURE DU MAILLAGE --------------------------------------------------
#


MAIL=LIRE_MAILLAGE(FORMAT='MED', )

#
# DEFINITION DES CHARGEMENTS ET DU MATERIAU ----------------------------
#

# ----- MATERIAU


MATE=DEFI_MATERIAU(   THER=_F(  LAMBDA = 1.0,  RHO_CP = 2.0)
                       )

#
# AFFECTATIONS: MATERIAU, MODELE, CHARGEMENT ---------------------------
#


CHMAT=AFFE_MATERIAU(   MAILLAGE=MAIL,
                           AFFE=_F(  TOUT = 'OUI',  MATER = MATE)
                        )

MOTH=AFFE_MODELE(   MAILLAGE=MAIL,
                       AFFE=_F(  TOUT = 'OUI',  MODELISATION = 'AXIS',
                              PHENOMENE = 'THERMIQUE')
                     )

CHTH=AFFE_CHAR_THER(   MODELE=MOTH,
                           SOURCE=_F(  TOUT = 'OUI',  SOUR = 100.0),
                           TEMP_IMPO=_F(  GROUP_NO = 'NOE_IMP',  TEMP = 20.0)
                        )

#
# DEFINITION DE LA STRATEGIE DE CALCUL ---------------------------------
#

#
# RESOLUTION -----------------------------------------------------------
#


TEMPE=THER_LINEAIRE(   MODELE=MOTH,
                            CHAM_MATER=CHMAT,
                            EXCIT=_F(  CHARGE = CHTH)
                         )

#
# ANALYSE DES RESULTATS ------------------------------------------------
#

TEMPE=CALC_CHAMP(reuse=TEMPE, RESULTAT=TEMPE,


                NUME_ORDRE=0,
                 THERMIQUE=('FLUX_ELNO')
                          )

TEST_RESU(RESU=(_F(NUME_ORDRE=0,
                   RESULTAT=TEMPE,
                   NOM_CHAM='TEMP',
                   NOEUD='N1',
                   NOM_CMP='TEMP',
                   VALE_CALC=20.000000000,
                   VALE_REFE=20.0,
                   REFERENCE='NON_DEFINI',
                   PRECISION=1.E-2,),
                _F(NUME_ORDRE=0,
                   RESULTAT=TEMPE,
                   NOM_CHAM='TEMP',
                   NOEUD='N2',
                   NOM_CMP='TEMP',
                   VALE_CALC=20.000000000,
                   VALE_REFE=20.0,
                   REFERENCE='NON_DEFINI',
                   PRECISION=1.E-2,),
                _F(NUME_ORDRE=0,
                   RESULTAT=TEMPE,
                   NOM_CHAM='TEMP',
                   NOEUD='N3',
                   NOM_CMP='TEMP',
                   VALE_CALC=20.000000000,
                   VALE_REFE=20.0,
                   REFERENCE='NON_DEFINI',
                   PRECISION=1.E-2,),
                _F(NUME_ORDRE=0,
                   RESULTAT=TEMPE,
                   NOM_CHAM='TEMP',
                   NOEUD='N25',
                   NOM_CMP='TEMP',
                   VALE_CALC=28.727580183,
                   VALE_REFE=28.73,
                   REFERENCE='NON_DEFINI',
                   PRECISION=1.E-2,),
                _F(NUME_ORDRE=0,
                   RESULTAT=TEMPE,
                   NOM_CHAM='TEMP',
                   NOEUD='N26',
                   NOM_CMP='TEMP',
                   VALE_CALC=28.727580183,
                   VALE_REFE=28.73,
                   REFERENCE='NON_DEFINI',
                   PRECISION=1.E-2,),
                _F(NUME_ORDRE=0,
                   RESULTAT=TEMPE,
                   NOM_CHAM='TEMP',
                   NOEUD='N27',
                   NOM_CMP='TEMP',
                   VALE_CALC=28.727580183,
                   VALE_REFE=28.73,
                   REFERENCE='NON_DEFINI',
                   PRECISION=1.E-2,),
                _F(NUME_ORDRE=0,
                   RESULTAT=TEMPE,
                   NOM_CHAM='TEMP',
                   NOEUD='N61',
                   NOM_CMP='TEMP',
                   VALE_CALC=32.622187316,
                   VALE_REFE=32.619999999999997,
                   REFERENCE='NON_DEFINI',
                   PRECISION=1.E-2,),
                _F(NUME_ORDRE=0,
                   RESULTAT=TEMPE,
                   NOM_CHAM='TEMP',
                   NOEUD='N62',
                   NOM_CMP='TEMP',
                   VALE_CALC=32.622187316,
                   VALE_REFE=32.619999999999997,
                   REFERENCE='NON_DEFINI',
                   PRECISION=1.E-2,),
                _F(NUME_ORDRE=0,
                   RESULTAT=TEMPE,
                   NOM_CHAM='TEMP',
                   NOEUD='N63',
                   NOM_CMP='TEMP',
                   VALE_CALC=32.622187316,
                   VALE_REFE=32.619999999999997,
                   REFERENCE='NON_DEFINI',
                   PRECISION=1.E-2,),
                _F(NUME_ORDRE=0,
                   RESULTAT=TEMPE,
                   NOM_CHAM='FLUX_ELNO',
                   NOEUD='N1',
                   NOM_CMP='FLUX',
                   VALE_CALC=-58.159209014,
                   VALE_REFE=-58.200000000000003,
                   REFERENCE='NON_DEFINI',
                   PRECISION=1.E-2,
                   MAILLE='M20',),
                _F(NUME_ORDRE=0,
                   RESULTAT=TEMPE,
                   NOM_CHAM='FLUX_ELNO',
                   NOEUD='N2',
                   NOM_CMP='FLUX',
                   VALE_CALC=-58.159209014,
                   VALE_REFE=-58.200000000000003,
                   REFERENCE='NON_DEFINI',
                   PRECISION=1.E-2,
                   MAILLE='M20',),
                _F(NUME_ORDRE=0,
                   RESULTAT=TEMPE,
                   NOM_CHAM='FLUX_ELNO',
                   NOEUD='N3',
                   NOM_CMP='FLUX',
                   VALE_CALC=-58.159209014,
                   VALE_REFE=-58.200000000000003,
                   REFERENCE='NON_DEFINI',
                   PRECISION=1.E-2,
                   MAILLE='M20',),
                _F(NUME_ORDRE=0,
                   RESULTAT=TEMPE,
                   NOM_CHAM='FLUX_ELNO',
                   NOEUD='N25',
                   NOM_CMP='FLUX',
                   VALE_CALC=-30.141224559,
                   VALE_REFE=-30.170000000000002,
                   REFERENCE='NON_DEFINI',
                   PRECISION=1.E-2,
                   MAILLE='M17',),
                _F(NUME_ORDRE=0,
                   RESULTAT=TEMPE,
                   NOM_CHAM='FLUX_ELNO',
                   NOEUD='N26',
                   NOM_CMP='FLUX',
                   VALE_CALC=-30.141224559,
                   VALE_REFE=-30.170000000000002,
                   REFERENCE='NON_DEFINI',
                   PRECISION=1.E-2,
                   MAILLE='M17',),
                _F(NUME_ORDRE=0,
                   RESULTAT=TEMPE,
                   NOM_CHAM='FLUX_ELNO',
                   NOEUD='N27',
                   NOM_CMP='FLUX',
                   VALE_CALC=-30.141224559,
                   VALE_REFE=-30.170000000000002,
                   REFERENCE='NON_DEFINI',
                   PRECISION=1.E-2,
                   MAILLE='M17',),
                _F(NUME_ORDRE=0,
                   RESULTAT=TEMPE,
                   NOM_CHAM='FLUX_ELNO',
                   NOEUD='N25',
                   NOM_CMP='FLUX',
                   VALE_CALC=-30.143401279,
                   VALE_REFE=-30.170000000000002,
                   REFERENCE='NON_DEFINI',
                   PRECISION=1.E-2,
                   MAILLE='M16',),
                _F(NUME_ORDRE=0,
                   RESULTAT=TEMPE,
                   NOM_CHAM='FLUX_ELNO',
                   NOEUD='N26',
                   NOM_CMP='FLUX',
                   VALE_CALC=-30.143401279,
                   VALE_REFE=-30.170000000000002,
                   REFERENCE='NON_DEFINI',
                   PRECISION=1.E-2,
                   MAILLE='M16',),
                _F(NUME_ORDRE=0,
                   RESULTAT=TEMPE,
                   NOM_CHAM='FLUX_ELNO',
                   NOEUD='N27',
                   NOM_CMP='FLUX',
                   VALE_CALC=-30.143401279,
                   VALE_REFE=-30.170000000000002,
                   REFERENCE='NON_DEFINI',
                   PRECISION=1.E-2,
                   MAILLE='M16',),
                _F(NUME_ORDRE=0,
                   RESULTAT=TEMPE,
                   NOM_CHAM='FLUX_ELNO',
                   NOEUD='N61',
                   NOM_CMP='FLUX',
                   VALE_CALC=2.879063381,
                   VALE_REFE=2.8700000000000001,
                   REFERENCE='NON_DEFINI',
                   PRECISION=1.E-2,
                   MAILLE='M11',),
                _F(NUME_ORDRE=0,
                   RESULTAT=TEMPE,
                   NOM_CHAM='FLUX_ELNO',
                   NOEUD='N62',
                   NOM_CMP='FLUX',
                   VALE_CALC=2.879063381,
                   VALE_REFE=2.8700000000000001,
                   REFERENCE='NON_DEFINI',
                   PRECISION=1.E-2,
                   MAILLE='M11',),
                _F(NUME_ORDRE=0,
                   RESULTAT=TEMPE,
                   NOM_CHAM='FLUX_ELNO',
                   NOEUD='N63',
                   NOM_CMP='FLUX',
                   VALE_CALC=2.879063381,
                   VALE_REFE=2.8700000000000001,
                   REFERENCE='NON_DEFINI',
                   PRECISION=1.E-2,
                   MAILLE='M11',),
                _F(NUME_ORDRE=0,
                   RESULTAT=TEMPE,
                   NOM_CHAM='FLUX_ELNO',
                   NOEUD='N61',
                   NOM_CMP='FLUX',
                   VALE_CALC=2.878172169,
                   VALE_REFE=2.8700000000000001,
                   REFERENCE='NON_DEFINI',
                   PRECISION=1.E-2,
                   MAILLE='M10',),
                _F(NUME_ORDRE=0,
                   RESULTAT=TEMPE,
                   NOM_CHAM='FLUX_ELNO',
                   NOEUD='N62',
                   NOM_CMP='FLUX',
                   VALE_CALC=2.878172169,
                   VALE_REFE=2.8700000000000001,
                   REFERENCE='NON_DEFINI',
                   PRECISION=1.E-2,
                   MAILLE='M10',),
                _F(NUME_ORDRE=0,
                   RESULTAT=TEMPE,
                   NOM_CHAM='FLUX_ELNO',
                   NOEUD='N63',
                   NOM_CMP='FLUX',
                   VALE_CALC=2.878172169,
                   VALE_REFE=2.8700000000000001,
                   REFERENCE='NON_DEFINI',
                   PRECISION=1.E-2,
                   MAILLE='M10',),
                ),
          )

#
# FIN ------------------------------------------------------------------
#

FIN()
#
#
