# MODIF  DATE 13/01/2011   AUTEUR PELLET J.PELLET 
# TITRE CYLINDRE CREUX EN THERMIQUE STATIONNAIRE (TRIA6/QUAD8 AXIS)
#            CONFIGURATION MANAGEMENT OF EDF VERSION
# ======================================================================
# COPYRIGHT (C) 1991 - 2011  EDF R&D                  WWW.CODE-ASTER.ORG
# THIS PROGRAM IS FREE SOFTWARE; YOU CAN REDISTRIBUTE IT AND/OR MODIFY
# IT UNDER THE TERMS OF THE GNU GENERAL PUBLIC LICENSE AS PUBLISHED BY
# THE FREE SOFTWARE FOUNDATION; EITHER VERSION 2 OF THE LICENSE, OR
# (AT YOUR OPTION) ANY LATER VERSION.
#
# THIS PROGRAM IS DISTRIBUTED IN THE HOPE THAT IT WILL BE USEFUL, BUT
# WITHOUT ANY WARRANTY; WITHOUT EVEN THE IMPLIED WARRANTY OF
# MERCHANTABILITY OR FITNESS FOR A PARTICULAR PURPOSE. SEE THE GNU
# GENERAL PUBLIC LICENSE FOR MORE DETAILS.
#
# YOU SHOULD HAVE RECEIVED A COPY OF THE GNU GENERAL PUBLIC LICENSE
# ALONG WITH THIS PROGRAM; IF NOT, WRITE TO EDF R&D CODE_ASTER,
#    1 AVENUE DU GENERAL DE GAULLE, 92141 CLAMART CEDEX, FRANCE.
# ======================================================================
#CAS_TEST__: TPLA01B
# CAS TEST TPLA01B


DEBUT(CODE=_F(NOM='TPLA01B',NIV_PUB_WEB='INTERNET'),DEBUG=_F(SDVERI='OUI'))

ACIER=DEFI_MATERIAU( THER=_F(  LAMBDA = 1.0, RHO_CP = 2.0))

MAIL=LIRE_MAILLAGE( )

CHMAT=AFFE_MATERIAU(  MAILLAGE=MAIL,
                AFFE=_F(  TOUT = 'OUI', MATER = ACIER) )

MOTH=AFFE_MODELE(  MAILLAGE=MAIL,
                      AFFE=_F( TOUT = 'OUI', MODELISATION = 'AXIS',
                                      PHENOMENE = 'THERMIQUE'))

CHTH=AFFE_CHAR_THER(  MODELE=MOTH,FLUX_REP=(
          _F( GROUP_MA = 'GRMA13', FLUN = 0.0),
          _F( GROUP_MA = 'GRMA14', FLUN = 1729.9091)),
           ECHANGE=_F( GROUP_MA = 'GRMA12', COEF_H = 500., TEMP_EXT = 17.034444),
          TEMP_IMPO=_F( GROUP_NO = 'GRNM15', TEMP = 100.0)
         )

LR8=DEFI_LIST_REEL(        DEBUT=0.,
       INTERVALLE=_F(    JUSQU_A = 10.0,   NOMBRE = 2)
                       )

TEMPE=THER_LINEAIRE(        MODELE=MOTH,
                             CHAM_MATER=CHMAT,
                            ETAT_INIT=_F(  STATIONNAIRE = 'OUI'),
                            INCREMENT=_F(  LIST_INST = LR8),
                                EXCIT=_F(  CHARGE = CHTH)
                        )

TEMPE=CALC_ELEM( reuse=TEMPE, RESULTAT=TEMPE,
                 NUME_ORDRE=2,
                 OPTION='FLUX_ELNO',);

TEST_RESU(RESU=(

   _F( RESULTAT = TEMPE, NUME_ORDRE=2, NOM_CHAM='TEMP',
   NOEUD = 'N180', NOM_CMP = 'TEMP', VALE = 100.0),
   _F( RESULTAT = TEMPE, NUME_ORDRE=2, NOM_CHAM='TEMP',
   NOEUD = 'N10',  NOM_CMP = 'TEMP', VALE = 20.0),
   _F( RESULTAT = TEMPE, NUME_ORDRE=2, NOM_CHAM='TEMP',
   NOEUD = 'N112', NOM_CMP = 'TEMP', VALE = 66.506),
   _F( RESULTAT = TEMPE, NUME_ORDRE=2, NOM_CHAM='TEMP',
   NOEUD = 'N178', NOM_CMP = 'TEMP', VALE = 100.0),

   _F( RESULTAT = TEMPE, NUME_ORDRE=2, NOM_CHAM='FLUX_ELNO',
   MAILLE = 'M59',  NOEUD = 'N180',  NOM_CMP = 'FLUX',
                          VALE = 1729.91, PRECISION = 1.E-2),
   _F( RESULTAT = TEMPE, NUME_ORDRE=2, NOM_CHAM='FLUX_ELNO',
   MAILLE = 'M59',  NOEUD = 'N180',  NOM_CMP = 'FLUY',
   VALE = 0.0, CRITERE = 'ABSOLU', PRECISION = 17.E0),
   _F( RESULTAT = TEMPE, NUME_ORDRE=2, NOM_CHAM='FLUX_ELNO',
   MAILLE = 'M4',   NOEUD = 'N10',   NOM_CMP = 'FLUX',
   VALE = 1482.78, PRECISION = 1.E-2),
   _F( RESULTAT = TEMPE, NUME_ORDRE=2, NOM_CHAM='FLUX_ELNO',
   MAILLE = 'M4',   NOEUD = 'N10',   NOM_CMP = 'FLUY',
   VALE = 0.0, CRITERE = 'ABSOLU', PRECISION = 14.E0),
   _F( RESULTAT = TEMPE, NUME_ORDRE=2, NOM_CHAM='FLUX_ELNO',
   MAILLE = 'M58',  NOEUD = 'N178',  NOM_CMP = 'FLUX',
   VALE = 1729.91, PRECISION = 1.E-2),
   _F( RESULTAT = TEMPE, NUME_ORDRE=2, NOM_CHAM='FLUX_ELNO',
   MAILLE = 'M58',  NOEUD = 'N178',  NOM_CMP = 'FLUY',
   VALE = 0.0, CRITERE = 'ABSOLU', PRECISION = 17.E0),
   _F( RESULTAT = TEMPE, NUME_ORDRE=2, NOM_CHAM='FLUX_ELNO',
   MAILLE = 'M35',  NOEUD = 'N112',  NOM_CMP = 'FLUX',
   VALE = 1621.79, PRECISION = 1.E-2),
   _F( RESULTAT = TEMPE, NUME_ORDRE=2, NOM_CHAM='FLUX_ELNO',
   MAILLE = 'M35',  NOEUD = 'N112',  NOM_CMP = 'FLUY',
   VALE = 0.0, CRITERE = 'ABSOLU', PRECISION = 16.E0),
   _F( RESULTAT = TEMPE, NUME_ORDRE=2, NOM_CHAM='FLUX_ELNO',
   MAILLE = 'M38',  NOEUD = 'N112',  NOM_CMP = 'FLUX',
   VALE = 1621.79, PRECISION = 1.E-2),
   _F( RESULTAT = TEMPE, NUME_ORDRE=2, NOM_CHAM='FLUX_ELNO',
   MAILLE = 'M38',  NOEUD = 'N112',  NOM_CMP = 'FLUY',
   VALE = 0.0, CRITERE = 'ABSOLU', PRECISION = 16.E0))
          )

FIN()
#
