# MODIF  DATE 29/08/2005   AUTEUR LEBOUVIE F.LEBOUVIER 
# TITRE CYLINDRE CREUX ORTHOTROPE
#            CONFIGURATION MANAGEMENT OF EDF VERSION
# ======================================================================
# COPYRIGHT (C) 1991 - 2001  EDF R&D                  WWW.CODE-ASTER.ORG
# THIS PROGRAM IS FREE SOFTWARE; YOU CAN REDISTRIBUTE IT AND/OR MODIFY
# IT UNDER THE TERMS OF THE GNU GENERAL PUBLIC LICENSE AS PUBLISHED BY
# THE FREE SOFTWARE FOUNDATION; EITHER VERSION 2 OF THE LICENSE, OR   
# (AT YOUR OPTION) ANY LATER VERSION.                                 
#
# THIS PROGRAM IS DISTRIBUTED IN THE HOPE THAT IT WILL BE USEFUL, BUT 
# WITHOUT ANY WARRANTY; WITHOUT EVEN THE IMPLIED WARRANTY OF          
# MERCHANTABILITY OR FITNESS FOR A PARTICULAR PURPOSE. SEE THE GNU    
# GENERAL PUBLIC LICENSE FOR MORE DETAILS.                            
#
# YOU SHOULD HAVE RECEIVED A COPY OF THE GNU GENERAL PUBLIC LICENSE   
# ALONG WITH THIS PROGRAM; IF NOT, WRITE TO EDF R&D CODE_ASTER,       
#    1 AVENUE DU GENERAL DE GAULLE, 92141 CLAMART CEDEX, FRANCE.      
# ======================================================================
#
# MAILLES : TRIA3 (ET SEG2)
#
#

DEBUT(  CODE=_F( NOM = 'TPLA07A',NIV_PUB_WEB='INTERNET') )

#
# LECTURE DU MAILLAGE --------------------------------------------------
#

PRE_GMSH()

MAIL2=LIRE_MAILLAGE( )

MAIL2=DEFI_GROUP(reuse=MAIL2,MAILLAGE=MAIL2,
           CREA_GROUP_MA=(_F(NOM='MATIERE',GROUP_MA=('GM6')),
                          _F(NOM='MAI_AB' ,GROUP_MA=('GM1')),
                          _F(NOM='MAI_BC' ,GROUP_MA=('GM2')),
                          _F(NOM='MAI_CD' ,GROUP_MA=('GM3')),
                          _F(NOM='MAI_DA' ,GROUP_MA=('GM4')),),)


MAIL=CREA_MAILLAGE(MAILLAGE=MAIL2,LINE_QUAD=_F(TOUT='OUI'))


#
# DEFINITION DES CHARGEMENTS ET DU MATERIAU ----------------------------
#

# ----- MATERIAU


MATER=DEFI_MATERIAU(   THER_ORTH=_F(  LAMBDA_L = 2.89, LAMBDA_T = 40.00,
                                        LAMBDA_N = 2.89,   RHO_CP = 1.)
                         )

#
# AFFECTATIONS: MATERIAU, MODELE, CHARGEMENT ---------------------------
#


CHMAT=AFFE_MATERIAU(   MAILLAGE=MAIL,
                           AFFE=_F(  TOUT = 'OUI',  MATER = MATER)
                        )

MOTH=AFFE_MODELE(   MAILLAGE=MAIL,
                        AFFE=_F(  TOUT = 'OUI',
                               PHENOMENE = 'THERMIQUE',
                               MODELISATION = 'AXIS')
                      )

ORIEN=AFFE_CARA_ELEM(   MODELE=MOTH,
                            MASSIF=_F(  GROUP_MA = 'MATIERE',
                                     ANGL_REP = (0.,0.,0.,))
                         )

#  FLU_IMP = DEFI_FONCTION ( NOM_PARA:'Y'
#                            VALE: ( 0.0D0 ,-500.D0
#                                    0.4D0 , 500.D0 )
#                            INTERPOL:'NON'
#                          );


FLU_AB=DEFI_CONSTANTE(   VALE=-500.E0 )

FLU_CD=DEFI_CONSTANTE(   VALE=+500.E0 )

HCV_INT=DEFI_CONSTANTE(   VALE=377.E0 )

TEX_INT=DEFI_FONCTION(  NOM_PARA='Y',
                             VALE=( 0.0E0,  130.E0,
                                    0.4E0,  135.E0, ),
                             PROL_DROITE='LINEAIRE',
                            PROL_GAUCHE='LINEAIRE'
                          )

HCV_EXT=DEFI_CONSTANTE(   VALE=339.3E0 )

TEX_EXT=DEFI_FONCTION(  NOM_PARA='Y',
                             VALE=( 0.0E0,   20.E0,
                                    0.4E0,   25.E0, ),
                             PROL_DROITE='LINEAIRE',
                            PROL_GAUCHE='LINEAIRE'
                          )

CHTH=AFFE_CHAR_THER_F(   MODELE=MOTH,FLUX_REP=(
                            _F(  GROUP_MA = 'MAI_AB',   FLUN = FLU_AB),
                            _F(  GROUP_MA = 'MAI_CD',   FLUN = FLU_CD))
                        )

CHTH1=AFFE_CHAR_THER_F(   MODELE=MOTH,ECHANGE=(
                             _F(  GROUP_MA = 'MAI_DA', COEF_H = HCV_INT,
                                                     TEMP_EXT = TEX_INT),
                             _F(  GROUP_MA = 'MAI_BC', COEF_H = HCV_EXT,
                                                     TEMP_EXT = TEX_EXT))
                        )

#
# DEFINITION DE LA STRATEGIE DE CALCUL ---------------------------------
#

#
# RESOLUTION -----------------------------------------------------------
#

TEMPE=THER_LINEAIRE(   MODELE=MOTH,
                           CHAM_MATER=CHMAT,EXCIT=(
                            _F(  CHARGE = CHTH),
                            _F(  CHARGE = CHTH1)),
                            CARA_ELEM=ORIEN
                         )

#
# ANALYSE DES RESULTATS ------------------------------------------------
#


TEMPE=CALC_ELEM(reuse=TEMPE, RESULTAT=TEMPE,
                MODELE=MOTH,
                CARA_ELEM=ORIEN,
                EXCIT=(_F(  CHARGE = CHTH),
                       _F(  CHARGE = CHTH1)),
                CHAM_MATER=CHMAT,
                NUME_ORDRE=0,
                OPTION='FLUX_ELNO_TEMP'
                          )



MAIL=DEFI_GROUP(reuse=MAIL,MAILLAGE=MAIL,
                CREA_GROUP_NO=(_F(GROUP_MA='MAI_AB'),
                               _F(GROUP_MA='MAI_BC'),
                               _F(GROUP_MA='MAI_CD'),
                               _F(GROUP_MA='MAI_DA'),),)


TEST_RESU(RESU=(


_F( RESULTAT = TEMPE, NOEUD = 'N1', NUME_ORDRE=0, NOM_CHAM='TEMP',   NOM_CMP = 'TEMP',
VALE = 100.01,  PRECISION = 1.E-2),
_F( RESULTAT = TEMPE, NOEUD = 'N5', NUME_ORDRE=0, NOM_CHAM='TEMP',   NOM_CMP = 'TEMP',
VALE = 85.31,  PRECISION = 1.E-2),
_F( RESULTAT = TEMPE, NOEUD = 'N6', NUME_ORDRE=0, NOM_CHAM='TEMP',   NOM_CMP = 'TEMP',
VALE = 72.25,  PRECISION = 1.E-2),
_F( RESULTAT = TEMPE, NOEUD = 'N7', NUME_ORDRE=0, NOM_CHAM='TEMP',   NOM_CMP = 'TEMP',
VALE = 60.49,  PRECISION = 1.E-2),
_F( RESULTAT = TEMPE, NOEUD = 'N8', NUME_ORDRE=0, NOM_CHAM='TEMP',   NOM_CMP = 'TEMP',
VALE = 49.80,  PRECISION = 1.E-2),
_F( RESULTAT = TEMPE, NOEUD = 'N2', NUME_ORDRE=0, NOM_CHAM='TEMP',   NOM_CMP = 'TEMP',
VALE = 40.01,  PRECISION = 1.E-2),

_F( RESULTAT = TEMPE, NOEUD = 'N83', NUME_ORDRE=0, NOM_CHAM='TEMP', NOM_CMP = 'TEMP',
VALE = 102.66,  PRECISION = 1.E-2),
_F( RESULTAT = TEMPE, NOEUD = 'N135', NUME_ORDRE=0, NOM_CHAM='TEMP', NOM_CMP = 'TEMP',
VALE = 87.96,  PRECISION = 1.E-2),
_F( RESULTAT = TEMPE, NOEUD = 'N183', NUME_ORDRE=0, NOM_CHAM='TEMP', NOM_CMP = 'TEMP',
VALE = 74.90,  PRECISION = 1.E-2),
_F( RESULTAT = TEMPE, NOEUD = 'N231', NUME_ORDRE=0, NOM_CHAM='TEMP', NOM_CMP = 'TEMP',
VALE = 63.25,  PRECISION = 1.E-2),
_F( RESULTAT = TEMPE, NOEUD = 'N279', NUME_ORDRE=0, NOM_CHAM='TEMP', NOM_CMP = 'TEMP',
VALE = 52.56,  PRECISION = 1.E-2),
_F( RESULTAT = TEMPE, NOEUD = 'N35', NUME_ORDRE=0, NOM_CHAM='TEMP', NOM_CMP = 'TEMP',
VALE = 42.77,  PRECISION = 1.E-2),

_F( RESULTAT = TEMPE, NOEUD = 'N4', NUME_ORDRE=0, NOM_CHAM='TEMP', NOM_CMP = 'TEMP',
VALE = 105.01,  PRECISION = 1.E-2),
_F( RESULTAT = TEMPE, NOEUD = 'N60', NUME_ORDRE=0, NOM_CHAM='TEMP', NOM_CMP = 'TEMP',
VALE = 90.31,  PRECISION = 1.E-2),
_F( RESULTAT = TEMPE, NOEUD = 'N59', NUME_ORDRE=0, NOM_CHAM='TEMP', NOM_CMP = 'TEMP',
VALE = 77.25,  PRECISION = 1.E-2),
_F( RESULTAT = TEMPE, NOEUD = 'N58', NUME_ORDRE=0, NOM_CHAM='TEMP', NOM_CMP = 'TEMP',
VALE = 65.49,  PRECISION = 1.E-2),
_F( RESULTAT = TEMPE, NOEUD = 'N57', NUME_ORDRE=0, NOM_CHAM='TEMP', NOM_CMP = 'TEMP',
VALE = 54.80,  PRECISION = 1.E-2),
_F( RESULTAT = TEMPE, NOEUD = 'N3', NUME_ORDRE=0, NOM_CHAM='TEMP', NOM_CMP = 'TEMP',
VALE = 45.22,  PRECISION = 1.E-2),


#
# PARTIE INFERIEURE Z=0
#
# FLUY SUR AB

_F( RESULTAT = TEMPE, MAILLE = 'M109', NUME_ORDRE=0, NOM_CHAM='FLUX_ELNO_TEMP',
             NOEUD = 'N1',    NOM_CMP = 'FLUY',  VALE = -500.,  PRECISION = 1.E-2),
_F( RESULTAT = TEMPE, MAILLE = 'M109', NUME_ORDRE=0, NOM_CHAM='FLUX_ELNO_TEMP',
             NOEUD = 'N5',    NOM_CMP = 'FLUY',  VALE = -500.,  PRECISION = 4.5E-2),


_F( RESULTAT = TEMPE, MAILLE = 'M305', NUME_ORDRE=0, NOM_CHAM='FLUX_ELNO_TEMP',
             NOEUD = 'N6',    NOM_CMP = 'FLUY',  VALE = -500.,  PRECISION = 2.E-2),
_F( RESULTAT = TEMPE, MAILLE = 'M305',NUME_ORDRE=0, NOM_CHAM='FLUX_ELNO_TEMP',
             NOEUD = 'N7',    NOM_CMP = 'FLUY',  VALE = -500.,  PRECISION = 2.5E-2),

_F( RESULTAT = TEMPE, MAILLE = 'M501', NUME_ORDRE=0, NOM_CHAM='FLUX_ELNO_TEMP',
             NOEUD = 'N8',    NOM_CMP = 'FLUY',  VALE = -500.,  PRECISION = 1.E-2),
_F( RESULTAT = TEMPE, MAILLE = 'M501', NUME_ORDRE=0, NOM_CHAM='FLUX_ELNO_TEMP',
             NOEUD = 'N2',    NOM_CMP = 'FLUY',  VALE = -500.,  PRECISION = 1.5E-2),
_F( RESULTAT = TEMPE, MAILLE = 'M502', NUME_ORDRE=0, NOM_CHAM='FLUX_ELNO_TEMP',
             NOEUD = 'N2',    NOM_CMP = 'FLUY',  VALE = -500.,  PRECISION = 1.5E-2),


# FLUX RAYON INTERIEUR

_F( RESULTAT = TEMPE, MAILLE = 'M109', NUME_ORDRE=0, NOM_CHAM='FLUX_ELNO_TEMP',
             NOEUD = 'N1',    NOM_CMP = 'FLUX',  VALE = 11310.,  PRECISION = 1.E-2),
_F( RESULTAT = TEMPE, MAILLE = 'M109', NUME_ORDRE=0, NOM_CHAM='FLUX_ELNO_TEMP',
             NOEUD = 'N108',    NOM_CMP = 'FLUX',  VALE = 11310.,  PRECISION = 1.E-2),

# FLUX EN RAYON EXTERIEUR

_F( RESULTAT = TEMPE, MAILLE = 'M501', NUME_ORDRE=0, NOM_CHAM='FLUX_ELNO_TEMP',
             NOEUD = 'N2',    NOM_CMP = 'FLUX',  VALE = 6786.,  PRECISION = 1.E-2),
_F( RESULTAT = TEMPE, MAILLE = 'M502', NUME_ORDRE=0, NOM_CHAM='FLUX_ELNO_TEMP',
             NOEUD = 'N2',   NOM_CMP = 'FLUX',  VALE = 6786.,  PRECISION = 1.E-2),
_F( RESULTAT = TEMPE, MAILLE = 'M502', NUME_ORDRE=0, NOM_CHAM='FLUX_ELNO_TEMP',
             NOEUD = 'N9',   NOM_CMP = 'FLUX',  VALE = 6786.,  PRECISION = 1.E-2),


# PARTIE MOYENNE Z=0.2
#
_F( RESULTAT = TEMPE, MAILLE = 'M159', NUME_ORDRE=0, NOM_CHAM='FLUX_ELNO_TEMP',
             NOEUD = 'N83',  NOM_CMP = 'FLUY',  VALE = -500.,  PRECISION = 2.E-2),
_F( RESULTAT = TEMPE, MAILLE = 'M160', NUME_ORDRE=0, NOM_CHAM='FLUX_ELNO_TEMP',
             NOEUD = 'N83',  NOM_CMP = 'FLUY',  VALE = -500.,  PRECISION = 1.E-2),
_F( RESULTAT = TEMPE, MAILLE = 'M161', NUME_ORDRE=0, NOM_CHAM='FLUX_ELNO_TEMP',
             NOEUD = 'N83',  NOM_CMP = 'FLUY',  VALE = -500.,  PRECISION = 2.E-2),

_F( RESULTAT = TEMPE, MAILLE = 'M160', NUME_ORDRE=0, NOM_CHAM='FLUX_ELNO_TEMP',
             NOEUD = 'N134',  NOM_CMP = 'FLUY',  VALE = -500.,  PRECISION = 1.E-2),
_F( RESULTAT = TEMPE, MAILLE = 'M161', NUME_ORDRE=0, NOM_CHAM='FLUX_ELNO_TEMP',
             NOEUD = 'N134',  NOM_CMP = 'FLUY',  VALE = -500.,  PRECISION = 1.E-2),
_F( RESULTAT = TEMPE, MAILLE = 'M162', NUME_ORDRE=0, NOM_CHAM='FLUX_ELNO_TEMP',
             NOEUD = 'N134',  NOM_CMP = 'FLUY',  VALE = -500.,  PRECISION = 1.E-2),
_F( RESULTAT = TEMPE, MAILLE = 'M257', NUME_ORDRE=0, NOM_CHAM='FLUX_ELNO_TEMP',
             NOEUD = 'N134',  NOM_CMP = 'FLUY',  VALE = -500.,  PRECISION = 1.E-2),
_F( RESULTAT = TEMPE, MAILLE = 'M258', NUME_ORDRE=0, NOM_CHAM='FLUX_ELNO_TEMP',
             NOEUD = 'N134',  NOM_CMP = 'FLUY',  VALE = -500.,  PRECISION = 1.E-2),
_F( RESULTAT = TEMPE, MAILLE = 'M259', NUME_ORDRE=0, NOM_CHAM='FLUX_ELNO_TEMP',
             NOEUD = 'N134',  NOM_CMP = 'FLUY',  VALE = -500.,  PRECISION = 1.E-2),

_F( RESULTAT = TEMPE, MAILLE = 'M454', NUME_ORDRE=0, NOM_CHAM='FLUX_ELNO_TEMP',
             NOEUD = 'N278',  NOM_CMP = 'FLUY',  VALE = -500.,  PRECISION = 1.E-2),
_F( RESULTAT = TEMPE, MAILLE = 'M455', NUME_ORDRE=0, NOM_CHAM='FLUX_ELNO_TEMP',
             NOEUD = 'N278',  NOM_CMP = 'FLUY',  VALE = -500.,  PRECISION = 1.E-2),
_F( RESULTAT = TEMPE, MAILLE = 'M456', NUME_ORDRE=0, NOM_CHAM='FLUX_ELNO_TEMP',
             NOEUD = 'N278',  NOM_CMP = 'FLUY',  VALE = -500.,  PRECISION = 1.E-2),
_F( RESULTAT = TEMPE, MAILLE = 'M551', NUME_ORDRE=0, NOM_CHAM='FLUX_ELNO_TEMP',
             NOEUD = 'N278',  NOM_CMP = 'FLUY',  VALE = -500.,  PRECISION = 1.E-2),
_F( RESULTAT = TEMPE, MAILLE = 'M552', NUME_ORDRE=0, NOM_CHAM='FLUX_ELNO_TEMP',
             NOEUD = 'N278',  NOM_CMP = 'FLUY',  VALE = -500.,  PRECISION = 1.E-2),
_F( RESULTAT = TEMPE, MAILLE = 'M553', NUME_ORDRE=0, NOM_CHAM='FLUX_ELNO_TEMP',
             NOEUD = 'N278',  NOM_CMP = 'FLUY',  VALE = -500.,  PRECISION = 1.E-2),

_F( RESULTAT = TEMPE, MAILLE = 'M552', NUME_ORDRE=0, NOM_CHAM='FLUX_ELNO_TEMP',
             NOEUD = 'N34',  NOM_CMP = 'FLUY',  VALE = -500.,  PRECISION = 1.E-2),
_F( RESULTAT = TEMPE, MAILLE = 'M553', NUME_ORDRE=0, NOM_CHAM='FLUX_ELNO_TEMP',
             NOEUD = 'N34',  NOM_CMP = 'FLUY',  VALE = -500.,  PRECISION = 1.E-2),
_F( RESULTAT = TEMPE, MAILLE = 'M554', NUME_ORDRE=0, NOM_CHAM='FLUX_ELNO_TEMP',
             NOEUD = 'N34',  NOM_CMP = 'FLUY',  VALE = -500.,  PRECISION = 1.E-2),

# FLUX RAYON INTERIEUR

_F( RESULTAT = TEMPE, MAILLE = 'M159', NUME_ORDRE=0, NOM_CHAM='FLUX_ELNO_TEMP',
           NOEUD = 'N83',    NOM_CMP = 'FLUX',  VALE = 11310.,  PRECISION = 1.E-2),
_F( RESULTAT = TEMPE, MAILLE = 'M160', NUME_ORDRE=0, NOM_CHAM='FLUX_ELNO_TEMP',
           NOEUD = 'N83',    NOM_CMP = 'FLUX',  VALE = 11310.,  PRECISION = 1.E-2),
_F( RESULTAT = TEMPE, MAILLE = 'M161', NUME_ORDRE=0, NOM_CHAM='FLUX_ELNO_TEMP',
           NOEUD = 'N83',    NOM_CMP = 'FLUX',  VALE = 11310.,  PRECISION = 1.E-2),

# FLUX EN RAYON EXTERIEUR

_F( RESULTAT = TEMPE, MAILLE = 'M552', NUME_ORDRE=0, NOM_CHAM='FLUX_ELNO_TEMP',
             NOEUD = 'N34',    NOM_CMP = 'FLUX',  VALE = 6786.,  PRECISION = 1.E-2),
_F( RESULTAT = TEMPE, MAILLE = 'M553', NUME_ORDRE=0, NOM_CHAM='FLUX_ELNO_TEMP',
             NOEUD = 'N34',    NOM_CMP = 'FLUX',  VALE = 6786.,  PRECISION = 1.E-2),
_F( RESULTAT = TEMPE, MAILLE = 'M554', NUME_ORDRE=0, NOM_CHAM='FLUX_ELNO_TEMP',
             NOEUD = 'N34',    NOM_CMP = 'FLUX',  VALE = 6786.,  PRECISION = 1.E-2),
#
# PARTIE SUPERIEURE Z=0.4
#
_F( RESULTAT = TEMPE, MAILLE = 'M205', NUME_ORDRE=0, NOM_CHAM='FLUX_ELNO_TEMP',
             NOEUD = 'N4',  NOM_CMP = 'FLUY',  VALE = -500.,  PRECISION = 4.5E-2),
_F( RESULTAT = TEMPE, MAILLE = 'M206', NUME_ORDRE=0, NOM_CHAM='FLUX_ELNO_TEMP',
             NOEUD = 'N4',  NOM_CMP = 'FLUY',  VALE = -500.,  PRECISION = 4.E-2),


_F( RESULTAT = TEMPE, MAILLE = 'M206', NUME_ORDRE=0, NOM_CHAM='FLUX_ELNO_TEMP',
             NOEUD = 'N60',  NOM_CMP = 'FLUY',  VALE = -500.,  PRECISION = 2.5E-2),
_F( RESULTAT = TEMPE, MAILLE = 'M303', NUME_ORDRE=0, NOM_CHAM='FLUX_ELNO_TEMP',
             NOEUD = 'N60', NOM_CMP = 'FLUY',  VALE = -500.,  PRECISION = 2.5E-2),
_F( RESULTAT = TEMPE, MAILLE = 'M304', NUME_ORDRE=0, NOM_CHAM='FLUX_ELNO_TEMP',
             NOEUD = 'N60',  NOM_CMP = 'FLUY',  VALE = -500.,  PRECISION = 3.E-2),

_F( RESULTAT = TEMPE, MAILLE = 'M500', NUME_ORDRE=0, NOM_CHAM='FLUX_ELNO_TEMP',
             NOEUD = 'N57',  NOM_CMP = 'FLUY',  VALE = -500.,  PRECISION = 1.E-2),
_F( RESULTAT = TEMPE, MAILLE = 'M597', NUME_ORDRE=0, NOM_CHAM='FLUX_ELNO_TEMP',
             NOEUD = 'N57',  NOM_CMP = 'FLUY',  VALE = -500.,  PRECISION = 1.E-2),
_F( RESULTAT = TEMPE, MAILLE = 'M598', NUME_ORDRE=0, NOM_CHAM='FLUX_ELNO_TEMP',
             NOEUD = 'N57',  NOM_CMP = 'FLUY',  VALE = -500.,  PRECISION = 1.5E-2),

_F( RESULTAT = TEMPE, MAILLE = 'M598', NUME_ORDRE=0, NOM_CHAM='FLUX_ELNO_TEMP',
             NOEUD = 'N3',  NOM_CMP = 'FLUY',  VALE = -500.,  PRECISION = 1.E-2),

# FLUX RAYON INTERIEUR

_F( RESULTAT = TEMPE, MAILLE = 'M205', NUME_ORDRE=0, NOM_CHAM='FLUX_ELNO_TEMP',
           NOEUD = 'N4',    NOM_CMP = 'FLUX',  VALE = 11310.,  PRECISION = 1.E-2),
_F( RESULTAT = TEMPE, MAILLE = 'M206', NUME_ORDRE=0, NOM_CHAM='FLUX_ELNO_TEMP',
           NOEUD = 'N4',    NOM_CMP = 'FLUX',  VALE = 11310.,  PRECISION = 1.E-2),

# FLUX EN RAYON EXTERIEUR

_F( RESULTAT = TEMPE, MAILLE = 'M598', NUME_ORDRE=0, NOM_CHAM='FLUX_ELNO_TEMP',
             NOEUD = 'N3',    NOM_CMP = 'FLUX',  VALE = 6786.,  PRECISION = 1.E-2))

          )

#
# FIN ------------------------------------------------------------------
#

FIN()
#
#
