# MODIF  DATE 13/01/2011   AUTEUR PELLET J.PELLET 
# TITRE MUR PLAN EN THERMIQUE STATIONNAIRE (QUAD9/TRIA6)
#            CONFIGURATION MANAGEMENT OF EDF VERSION
# ======================================================================
# COPYRIGHT (C) 1991 - 2011  EDF R&D                  WWW.CODE-ASTER.ORG
# THIS PROGRAM IS FREE SOFTWARE; YOU CAN REDISTRIBUTE IT AND/OR MODIFY
# IT UNDER THE TERMS OF THE GNU GENERAL PUBLIC LICENSE AS PUBLISHED BY
# THE FREE SOFTWARE FOUNDATION; EITHER VERSION 2 OF THE LICENSE, OR
# (AT YOUR OPTION) ANY LATER VERSION.
#
# THIS PROGRAM IS DISTRIBUTED IN THE HOPE THAT IT WILL BE USEFUL, BUT
# WITHOUT ANY WARRANTY; WITHOUT EVEN THE IMPLIED WARRANTY OF
# MERCHANTABILITY OR FITNESS FOR A PARTICULAR PURPOSE. SEE THE GNU
# GENERAL PUBLIC LICENSE FOR MORE DETAILS.
#
# YOU SHOULD HAVE RECEIVED A COPY OF THE GNU GENERAL PUBLIC LICENSE
# ALONG WITH THIS PROGRAM; IF NOT, WRITE TO EDF R&D CODE_ASTER,
#    1 AVENUE DU GENERAL DE GAULLE, 92141 CLAMART CEDEX, FRANCE.
# ======================================================================
# CAS TEST TPLL01C

DEBUT(CODE=_F(NOM='TPLL01C',NIV_PUB_WEB='INTERNET'),DEBUG=_F(SDVERI='OUI'))

PHI0=DEFI_CONSTANTE(    NOM_RESU='FLUN',  VALE=0.0         )

PHI1=DEFI_CONSTANTE(    NOM_RESU='FLUN',  VALE=-1200.0     )

COEH=DEFI_CONSTANTE(    NOM_RESU='FLUN',  VALE=30.0        )

T_EX=DEFI_CONSTANTE(    NOM_RESU='FLUN',  VALE=140.0       )

T_IM=DEFI_CONSTANTE(    NOM_RESU='FLUN',  VALE=100.0       )

ACIER=DEFI_MATERIAU( THER=_F(  LAMBDA = 0.75, RHO_CP = 2.0))

MAIL=LIRE_MAILLAGE( )

CHMAT=AFFE_MATERIAU(  MAILLAGE=MAIL,
                AFFE=_F(  TOUT = 'OUI', MATER = ACIER) )

MOTH=AFFE_MODELE(  MAILLAGE=MAIL,
                      AFFE=_F( TOUT = 'OUI', MODELISATION = 'PLAN',
                                      PHENOMENE = 'THERMIQUE'))

CHTH=AFFE_CHAR_THER_F(  MODELE=MOTH,FLUX_REP=(
          _F( GROUP_MA = 'GRMA13', FLUN = PHI0),
          _F( GROUP_MA = 'GRMA12', FLUN = PHI1)),
           ECHANGE=_F( GROUP_MA = 'GRMA14', COEF_H = COEH, TEMP_EXT = T_EX),
          TEMP_IMPO=_F( GROUP_NO = 'GRNM15', TEMP = T_IM)
         )

LR8=DEFI_LIST_REEL(        DEBUT=0.,
       INTERVALLE=_F(    JUSQU_A = 10.0,   NOMBRE = 2)
                       )

TEMPE=THER_LINEAIRE(        MODELE=MOTH,
           ETAT_INIT=_F( STATIONNAIRE = 'OUI'),
          INCREMENT=_F( LIST_INST = LR8),
             CHAM_MATER=CHMAT, EXCIT=_F( CHARGE = CHTH)
             )

TEMPE=CALC_ELEM( reuse=TEMPE,
                 RESULTAT=TEMPE,
                 OPTION=('FLUX_ELNO',
                 'FLUX_ELGA',),);


TEST_RESU(RESU=(
   _F( RESULTAT = TEMPE, NUME_ORDRE=2, NOM_CHAM='TEMP',
   NOEUD = 'N24',  NOM_CMP = 'TEMP', VALE = 100.0),
   _F( RESULTAT = TEMPE, NUME_ORDRE=2, NOM_CHAM='TEMP',
   NOEUD = 'N6',   NOM_CMP = 'TEMP', VALE = 20.0),
   _F( RESULTAT = TEMPE, NUME_ORDRE=2, NOM_CHAM='TEMP',
   NOEUD = 'N14',  NOM_CMP = 'TEMP', VALE = 60.0),

   _F( RESULTAT = TEMPE, NUME_ORDRE=2, NOM_CHAM='FLUX_ELNO',
   MAILLE = 'M1', POINT = 3, NOM_CMP = 'FLUX', VALE = 960.0),
   _F( RESULTAT = TEMPE, NUME_ORDRE=2, NOM_CHAM='FLUX_ELNO',
   MAILLE = 'M2', POINT = 2, NOM_CMP = 'FLUY', VALE = 720.0),
   _F( RESULTAT = TEMPE, NUME_ORDRE=2, NOM_CHAM='FLUX_ELGA',
   MAILLE = 'M1', POINT = 3, NOM_CMP = 'FLUX', VALE = 960.0),
   _F( RESULTAT = TEMPE, NUME_ORDRE=2, NOM_CHAM='FLUX_ELGA',
   MAILLE = 'M2', POINT = 2, NOM_CMP = 'FLUY', VALE = 720.0))
          )

CHEM=INTE_MAIL_2D(   MAILLAGE=MAIL,
                      DEFI_SEGMENT=_F( ORIGINE = ( 0.04,  0.07, ),
                                    EXTREMITE = ( 0.07,  0.03, ))
                   )

TR1_C=POST_RELEVE_T(    ACTION=_F(  INTITULE = 'FLU_NORM',
                           CHEMIN = CHEM,
                           RESULTAT = TEMPE,
                           TRAC_NOR = 'OUI',
                           NUME_ORDRE=2,
                           NOM_CHAM='FLUX_ELNO',
                           NOM_CMP = ( 'FLUX', 'FLUY', ),
                           OPERATION = 'EXTRACTION')  )

TEST_TABLE(    TABLE=TR1_C,
                FILTRE=_F(  NOM_PARA = 'ABSC_CURV',
                         VALE = 0.00000E+00),
                NOM_PARA='TRAC_NOR',
                    VALE=1200.0
            )

TEST_TABLE(    TABLE=TR1_C,
                FILTRE=_F(  NOM_PARA = 'ABSC_CURV',
                         VALE = 2.50000E-02),
                NOM_PARA='TRAC_NOR',
                    VALE=1200.0
            )

TEST_TABLE(    TABLE=TR1_C,
                FILTRE=_F(  NOM_PARA = 'ABSC_CURV',
                         VALE = 5.00000E-02),
                NOM_PARA='TRAC_NOR',
                    VALE=1200.0
            )

FIN()
#
