# TITRE MUR PLAN EN THERMIQUE STATIONNAIRE (QUAD4/TRIA3) CALC_MATR_ELEM
# ======================================================================
# COPYRIGHT (C) 1991 - 2015  EDF R&D                  WWW.CODE-ASTER.ORG
# THIS PROGRAM IS FREE SOFTWARE; YOU CAN REDISTRIBUTE IT AND/OR MODIFY
# IT UNDER THE TERMS OF THE GNU GENERAL PUBLIC LICENSE AS PUBLISHED BY
# THE FREE SOFTWARE FOUNDATION; EITHER VERSION 2 OF THE LICENSE, OR
# (AT YOUR OPTION) ANY LATER VERSION.
#
# THIS PROGRAM IS DISTRIBUTED IN THE HOPE THAT IT WILL BE USEFUL, BUT
# WITHOUT ANY WARRANTY; WITHOUT EVEN THE IMPLIED WARRANTY OF
# MERCHANTABILITY OR FITNESS FOR A PARTICULAR PURPOSE. SEE THE GNU
# GENERAL PUBLIC LICENSE FOR MORE DETAILS.
#
# YOU SHOULD HAVE RECEIVED A COPY OF THE GNU GENERAL PUBLIC LICENSE
# ALONG WITH THIS PROGRAM; IF NOT, WRITE TO EDF R&D CODE_ASTER,
#    1 AVENUE DU GENERAL DE GAULLE, 92141 CLAMART CEDEX, FRANCE.
# ======================================================================
# CAS TEST TPLL01A
DEBUT(  CODE=_F(NIV_PUB_WEB='INTERNET'),DEBUG=_F(SDVERI='OUI'),IMPR_MACRO='NON',)

ACIER=DEFI_MATERIAU(  THER=_F(  LAMBDA = 0.75, RHO_CP = 2.0))

MAIL=LIRE_MAILLAGE( )

CHMAT=AFFE_MATERIAU(  MAILLAGE=MAIL,
                        AFFE=_F(  TOUT = 'OUI', MATER = ACIER) )

MOTH=AFFE_MODELE(  MAILLAGE=MAIL,
                     AFFE=_F( TOUT = 'OUI', MODELISATION = 'PLAN_DIAG',
                                      PHENOMENE = 'THERMIQUE'))

CHTH=AFFE_CHAR_THER(   MODELE=MOTH,FLUX_REP=(
                          _F( GROUP_MA = 'GRMA13', FLUN = 0.0),
                          _F( GROUP_MA = 'GRMA12', FLUN = -1200.0)),
                           ECHANGE=_F( GROUP_MA = 'GRMA14', COEF_H = 30.0,
                                    TEMP_EXT = 140.0),
                          TEMP_IMPO=_F( GROUP_NO = 'GRNM15', TEMP = 100.0),
                         LIAISON_DDL=_F( NOEUD = ('N3', 'N1',),
#  LA LIGNE CI-DESSOUS EST FACULTATIVE , PAR DEFAUT LA LISTE DE
#  DDL EST 'TEMP'
#                                     DDL: ('TEMP' 'TEMP')
                                      COEF_MULT = (1., -1.,),
                                      COEF_IMPO = 40.)
                       )

TEMPE=THER_LINEAIRE(   MODELE=MOTH,
                       CHAM_MATER=CHMAT,
                       EXCIT=_F(  CHARGE = CHTH),
                       )


TEMPE=CALC_CHAMP(reuse=TEMPE,RESULTAT=TEMPE,NUME_ORDRE=0,THERMIQUE=('FLUX_ELNO','FLUX_ELGA','FLUX_NOEU',))


TEST_RESU(RESU=(_F(NUME_ORDRE=0,
                   RESULTAT=TEMPE,
                   NOM_CHAM='TEMP',
                   NOEUD='N5',
                   NOM_CMP='TEMP',
                   VALE_REFE=100.0,
                   VALE_CALC=100.0,
                   REFERENCE='ANALYTIQUE',
                   PRECISION=1.E-3,),
                _F(NUME_ORDRE=0,
                   RESULTAT=TEMPE,
                   NOM_CHAM='TEMP',
                   NOEUD='N1',
                   NOM_CMP='TEMP',
                   VALE_REFE=20.0,
                   VALE_CALC=20.000007339091,
                   REFERENCE='ANALYTIQUE',
                   PRECISION=1.E-3,),
                _F(NUME_ORDRE=0,
                   RESULTAT=TEMPE,
                   NOM_CHAM='TEMP',
                   NOEUD='N3',
                   NOM_CMP='TEMP',
                   VALE_REFE=60.0,
                   VALE_CALC=60.000007339091,
                   REFERENCE='ANALYTIQUE',
                   PRECISION=1.E-3,),
                _F(NUME_ORDRE=0,
                   POINT=3,
                   RESULTAT=TEMPE,
                   NOM_CHAM='FLUX_ELNO',
                   NOM_CMP='FLUX',
                   VALE_REFE=960.0,
                   VALE_CALC=959.99994993209,
                   PRECISION=1.E-3,
                   REFERENCE='ANALYTIQUE',
                   MAILLE='M1',),
                _F(NUME_ORDRE=0,
                   POINT=2,
                   RESULTAT=TEMPE,
                   NOM_CHAM='FLUX_ELNO',
                   NOM_CMP='FLUY',
                   VALE_REFE=720.0,
                   VALE_CALC=719.99996087962,
                   PRECISION=1.E-3,
                   REFERENCE='ANALYTIQUE',
                   MAILLE='M2',),
                _F(NUME_ORDRE=0,
                   POINT=3,
                   RESULTAT=TEMPE,
                   NOM_CHAM='FLUX_ELGA',
                   NOM_CMP='FLUX',
                   VALE_REFE=960.0,
                   VALE_CALC=959.99994590505,
                   PRECISION=1.E-3,
                   REFERENCE='ANALYTIQUE',
                   MAILLE='M1',),
                _F(NUME_ORDRE=0,
                   POINT=2,
                   RESULTAT=TEMPE,
                   NOM_CHAM='FLUX_ELGA',
                   NOM_CMP='FLUY',
                   VALE_REFE=720.0,
                   VALE_CALC=719.99996020297,
                   PRECISION=1.E-3,
                   REFERENCE='ANALYTIQUE',
                   MAILLE='M2',),
                ),
          )

#----------------------------------------------------------------------
# VALIDATION DE TRAC_NOR DE LA COMMANDE POST_RELEVE_T:
#

FLUX_G=MACR_LIGN_COUPE(RESULTAT=TEMPE, NUME_ORDRE=0, NOM_CHAM='FLUX_ELNO',
                     LIGN_COUPE=(
                        _F(TYPE='SEGMENT', NB_POINTS=5, INTITULE='FLUX_GLO',
                           NOM_CMP = ( 'FLUX', 'FLUY', ), DISTANCE_MAX=1.e-5,
                           COOR_ORIG=( 0.04,  0.07, ),
                           COOR_EXTR=( 0.07,  0.03, ),
                    )))

TEST_TABLE(VALE_REFE=960.0,
           VALE_CALC=959.9999476655,
           REFERENCE='ANALYTIQUE',
           PRECISION=1.E-3,
           NOM_PARA='FLUX',
           TABLE=FLUX_G,
           FILTRE=_F(NOM_PARA='ABSC_CURV',
                     VALE=0.025000000000000001,),
           )

TEST_TABLE(VALE_REFE=720.0,
           VALE_CALC=719.99989109509,
           REFERENCE='ANALYTIQUE',
           PRECISION=1.E-3,
           NOM_PARA='FLUY',
           TABLE=FLUX_G,
           FILTRE=_F(NOM_PARA='ABSC_CURV',
                     VALE=0.025000000000000001,),
           )

#
# LES RESULTATS DOIVENT ETRE IDENTIQUE A TRAC_NOR
# CALCUL DANS LE REPERE LOCAL :
# ---------------------------


FLUX_L=MACR_LIGN_COUPE(RESULTAT=TEMPE, NUME_ORDRE=0, NOM_CHAM='FLUX_NOEU',
                     LIGN_COUPE=(
                        _F(TYPE='SEGMENT', NB_POINTS=5, INTITULE='FLUX_LOC',
                           NOM_CMP = ( 'FLUX', 'FLUY', ),
                           DISTANCE_MAX=1.e-5, REPERE='LOCAL',  VECT_Y=(0., 1., 0.),
                           COOR_ORIG=( 0.04,  0.07, ),
                           COOR_EXTR=( 0.07,  0.03, ),
                    )))
#IMPR_TABLE(TABLE=FLUX_L)


TEST_TABLE(CRITERE='ABSOLU',
           ORDRE_GRANDEUR=1000.,
           VALE_CALC=0.,
           VALE_REFE=0.,
           REFERENCE='ANALYTIQUE',
           PRECISION=1.E-3,
           NOM_PARA='FLUX',
           TABLE=FLUX_L,
           FILTRE=_F(NOM_PARA='ABSC_CURV',
                     VALE=0.025,),
           )

TEST_TABLE(VALE_REFE=1200.0,
           VALE_CALC=1199.9998927895,
           PRECISION=1.E-3,
           REFERENCE='ANALYTIQUE',
           NOM_PARA='FLUY',
           TABLE=FLUX_L,
           FILTRE=_F(NOM_PARA='ABSC_CURV',
                     VALE=0.025,),
           )

#
# LES RESULTATS DOIVENT ETRE IDENTIQUES AU REPERE LOCAL
# CALCUL PAR LA TRAC_NORMALE :
# --------------------------

FLUX_N=MACR_LIGN_COUPE(RESULTAT=TEMPE, NUME_ORDRE=0, NOM_CHAM='FLUX_ELNO',
                     LIGN_COUPE=(
                        _F(TYPE='SEGMENT', NB_POINTS=5, INTITULE='FLUX_NOR',
                           NOM_CMP = ( 'FLUX', 'FLUY', ), DISTANCE_MAX=1.e-5, TRAC_NOR='OUI',
                           COOR_ORIG=( 0.04,  0.07, ),
                           COOR_EXTR=( 0.07,  0.03, ),
                    )))

TEST_TABLE(VALE_REFE=1200.0,
           VALE_CALC=1199.9999286301,
           PRECISION=1.E-3,
           REFERENCE='ANALYTIQUE',
           NOM_PARA='TRAC_NOR',
           TABLE=FLUX_N,
           FILTRE=_F(NOM_PARA='ABSC_CURV',
                     VALE=0.0,),
           )

TEST_TABLE(VALE_REFE=1200.0,
           VALE_CALC=1199.9998927895,
           PRECISION=1.E-3,
           REFERENCE='ANALYTIQUE',
           NOM_PARA='TRAC_NOR',
           TABLE=FLUX_N,
           FILTRE=_F(NOM_PARA='ABSC_CURV',
                     VALE=0.025000000000000001,),
           )

TEST_TABLE(VALE_REFE=1200.0,
           VALE_CALC=1199.9999522298,
           PRECISION=1.E-3,
           REFERENCE='ANALYTIQUE',
           NOM_PARA='TRAC_NOR',
           TABLE=FLUX_N,
           FILTRE=_F(NOM_PARA='ABSC_CURV',
                     VALE=0.050000000000000003,),
           )

#
# NOEUDS ORIENTES DE E VERS D, LA NORMALE VERS L'EXTERIEUR DU DOMAINE
# ---------------------------

TR1_N1=POST_RELEVE_T(    ACTION=_F(  INTITULE = 'FLU_NORM',
                           NOEUD = ( 'N9', 'N1', 'N2', ),
                           RESULTAT = TEMPE,
                           NUME_ORDRE=0,
                           NOM_CHAM='FLUX_ELNO',
                           TRAC_NOR = 'OUI',
                           NOM_CMP = ( 'FLUX', 'FLUY', ),
                           OPERATION = 'EXTRACTION')  )

TEST_TABLE(VALE_REFE=1200.0,
           VALE_CALC=1199.9999286301,
           PRECISION=1.E-3,
           REFERENCE='ANALYTIQUE',
           NOM_PARA='TRAC_NOR',
           TABLE=TR1_N1,
           FILTRE=_F(NOM_PARA='ABSC_CURV',
                     VALE=0.0,),
           )

TEST_TABLE(VALE_REFE=1200.0,
           VALE_CALC=1199.9998808426,
           PRECISION=1.E-3,
           REFERENCE='ANALYTIQUE',
           NOM_PARA='TRAC_NOR',
           TABLE=TR1_N1,
           FILTRE=_F(NOM_PARA='ABSC_CURV',
                     VALE=0.025000000000000001,),
           )

TEST_TABLE(VALE_REFE=1200.0,
           VALE_CALC=1199.9999522298,
           PRECISION=1.E-3,
           REFERENCE='ANALYTIQUE',
           NOM_PARA='TRAC_NOR',
           TABLE=TR1_N1,
           FILTRE=_F(NOM_PARA='ABSC_CURV',
                     VALE=0.050000000000000003,),
           )


# CHEMIN ORIENTE DE D VERS E, LA NORMALE VERS L'INTERIEUR DU DOMAINE
# -------------------------------------------------------------------

TR1_C2=MACR_LIGN_COUPE(RESULTAT=TEMPE, NUME_ORDRE=0, NOM_CHAM='FLUX_ELNO',
                     LIGN_COUPE=(
                        _F(TYPE='SEGMENT', NB_POINTS=5, INTITULE='FLU_NORM',
                           DISTANCE_MAX=1.e-6, TRAC_NOR='OUI', NOM_CMP = ( 'FLUX', 'FLUY', ),
                           COOR_ORIG=( 0.07,  0.03, ),
                           COOR_EXTR=( 0.04,  0.07, ),
                    )))


TEST_TABLE(VALE_REFE=-1200.0,
           VALE_CALC=-1199.9999522298,
           PRECISION=1.E-3,
           REFERENCE='ANALYTIQUE',
           NOM_PARA='TRAC_NOR',
           TABLE=TR1_C2,
           FILTRE=_F(NOM_PARA='ABSC_CURV',
                     VALE=0.0,),
           )

TEST_TABLE(VALE_REFE=-1200.0,
           VALE_CALC=-1199.9998927895,
           PRECISION=1.E-3,
           REFERENCE='ANALYTIQUE',
           NOM_PARA='TRAC_NOR',
           TABLE=TR1_C2,
           FILTRE=_F(NOM_PARA='ABSC_CURV',
                     VALE=0.025000000000000001,),
           )

TEST_TABLE(VALE_REFE=-1200.0,
           VALE_CALC=-1199.9999286301,
           PRECISION=1.E-3,
           REFERENCE='ANALYTIQUE',
           NOM_PARA='TRAC_NOR',
           TABLE=TR1_C2,
           FILTRE=_F(NOM_PARA='ABSC_CURV',
                     VALE=0.050000000000000003,),
           )

# NOEUDS ORIENTES DE D VERS E, LA NORMALE VERS L'INTERIEUR DU DOMAINE
# ---------------------------

TR1_N2=POST_RELEVE_T(    ACTION=_F(  INTITULE = 'FLU_NORM',
                           NOEUD = ( 'N2', 'N1', 'N9', ),
                           RESULTAT = TEMPE,
                           TRAC_NOR = 'OUI',
                           NUME_ORDRE=0,
                           NOM_CHAM='FLUX_ELNO',
                           NOM_CMP = ( 'FLUX', 'FLUY', ),
                           OPERATION = 'EXTRACTION')  )

TEST_TABLE(VALE_REFE=-1200.0,
           VALE_CALC=-1199.9999522298,
           PRECISION=1.E-3,
           REFERENCE='ANALYTIQUE',
           NOM_PARA='TRAC_NOR',
           TABLE=TR1_N2,
           FILTRE=_F(NOM_PARA='ABSC_CURV',
                     VALE=0.0,),
           )

TEST_TABLE(VALE_REFE=-1200.0,
           VALE_CALC=-1199.9998808426,
           PRECISION=1.E-3,
           REFERENCE='ANALYTIQUE',
           NOM_PARA='TRAC_NOR',
           TABLE=TR1_N2,
           FILTRE=_F(NOM_PARA='ABSC_CURV',
                     VALE=0.025000000000000001,),
           )

TEST_TABLE(VALE_REFE=-1200.0,
           VALE_CALC=-1199.9999286301,
           PRECISION=1.E-3,
           REFERENCE='ANALYTIQUE',
           NOM_PARA='TRAC_NOR',
           TABLE=TR1_N2,
           FILTRE=_F(NOM_PARA='ABSC_CURV',
                     VALE=0.050000000000000003,),
           )

FIN( )
#
