# MODIF  DATE 28/05/2004   AUTEUR LEBOUVIE F.LEBOUVIER 
# TITRE MUR PLAN EN THERMIQUE STATIONNAIRE (PENTA15) CALC_MATR_ELEM
# ======================================================================
#            CONFIGURATION MANAGEMENT OF EDF VERSION
# COPYRIGHT (C) 1991 - 2001  EDF R&D                  WWW.CODE-ASTER.ORG
# THIS PROGRAM IS FREE SOFTWARE; YOU CAN REDISTRIBUTE IT AND/OR MODIFY
# IT UNDER THE TERMS OF THE GNU GENERAL PUBLIC LICENSE AS PUBLISHED BY
# THE FREE SOFTWARE FOUNDATION; EITHER VERSION 2 OF THE LICENSE, OR   
# (AT YOUR OPTION) ANY LATER VERSION.                                 
#
# THIS PROGRAM IS DISTRIBUTED IN THE HOPE THAT IT WILL BE USEFUL, BUT 
# WITHOUT ANY WARRANTY; WITHOUT EVEN THE IMPLIED WARRANTY OF          
# MERCHANTABILITY OR FITNESS FOR A PARTICULAR PURPOSE. SEE THE GNU    
# GENERAL PUBLIC LICENSE FOR MORE DETAILS.                            
#
# YOU SHOULD HAVE RECEIVED A COPY OF THE GNU GENERAL PUBLIC LICENSE   
# ALONG WITH THIS PROGRAM; IF NOT, WRITE TO EDF R&D CODE_ASTER,       
#    1 AVENUE DU GENERAL DE GAULLE, 92141 CLAMART CEDEX, FRANCE.      
# ======================================================================
#

DEBUT(CODE=_F( NOM = 'TPLL01G',NIV_PUB_WEB='INTERNET'))

ACIER=DEFI_MATERIAU(  THER=_F(  LAMBDA = 0.75, RHO_CP = 2.0))

PRE_GIBI ( ) 

MAIL=LIRE_MAILLAGE(VERI_MAIL=_F(VERIF='NON'), )

MAIL=DEFI_GROUP(reuse=MAIL,MAILLAGE=MAIL, 
                CREA_GROUP_NO=_F( TOUT_GROUP_MA = 'OUI'))

CHMAT=AFFE_MATERIAU(  MAILLAGE=MAIL,
                        AFFE=_F(  TOUT = 'OUI', MATER = ACIER) )

MOTH=AFFE_MODELE(  MAILLAGE=MAIL,
                     AFFE=_F( TOUT = 'OUI', MODELISATION = '3D',
                                      PHENOMENE = 'THERMIQUE'))

CHTH=AFFE_CHAR_THER(   MODELE=MOTH,
                   FLUX_REP =_F( GROUP_MA = 'G2',    FLUN = -1200.0),
                   ECHANGE  =_F( GROUP_MA = 'F1SUP', COEF_H = 30.0,
                                                     TEMP_EXT = 140.0),
                   TEMP_IMPO=_F( GROUP_NO = 'F1INF', TEMP = 100.0)
                       )

LR8=DEFI_LIST_REEL(        DEBUT=0.,
       INTERVALLE=_F(    JUSQU_A = 10.0,   NOMBRE = 2)
                       )

TEMPE=THER_LINEAIRE(        MODELE=MOTH,
           TEMP_INIT=_F( STATIONNAIRE = 'OUI'),
          INCREMENT=_F( LIST_INST = LR8),
             CHAM_MATER=CHMAT, EXCIT=_F( CHARGE = CHTH)
             )

TEMPE=CALC_ELEM( reuse=TEMPE,
                 RESULTAT=TEMPE,
                 OPTION=('FLUX_ELNO_TEMP',
                 'FLUX_ELGA_TEMP',),);


TEST_RESU(RESU=( 
   _F( RESULTAT = TEMPE, NUME_ORDRE=2, NOM_CHAM='TEMP', 
   GROUP_NO = 'A', REFERENCE = 'ANALYTIQUE', NOM_CMP = 'TEMP', VALE = 100.0),
   _F( RESULTAT = TEMPE, NUME_ORDRE=2, NOM_CHAM='TEMP',
   GROUP_NO = 'B', REFERENCE = 'ANALYTIQUE', NOM_CMP = 'TEMP', VALE = 20.0),
   _F( RESULTAT = TEMPE, NUME_ORDRE=2, NOM_CHAM='TEMP',
   GROUP_NO = 'G', REFERENCE = 'ANALYTIQUE', NOM_CMP = 'TEMP', VALE = 60.0),
           
   _F( RESULTAT = TEMPE, NUME_ORDRE=2, NOM_CHAM='FLUX_ELNO_TEMP',
   MAILLE = 'M1',   REFERENCE = 'ANALYTIQUE', POINT = 3, 
   NOM_CMP = 'FLUX', VALE = 960.0),
   _F( RESULTAT = TEMPE, NUME_ORDRE=2, NOM_CHAM='FLUX_ELNO_TEMP',
   MAILLE = 'M2',   REFERENCE = 'ANALYTIQUE', POINT = 2,
   NOM_CMP = 'FLUY', VALE = 720.0),
   _F( RESULTAT = TEMPE, NUME_ORDRE=2, NOM_CHAM='FLUX_ELGA_TEMP',
   MAILLE = 'M1',   REFERENCE = 'ANALYTIQUE', POINT = 3,
   NOM_CMP = 'FLUX', VALE = 960.0),
   _F( RESULTAT = TEMPE, NUME_ORDRE=2, NOM_CHAM='FLUX_ELGA_TEMP',
   MAILLE = 'M2',   REFERENCE = 'ANALYTIQUE', POINT = 2,
   NOM_CMP = 'FLUY', VALE = 720.0))
          )

FIN()
#
