# TITRE MUR PLAN EN THERMIQUE STATIONNAIRE (HEXA20)
# ======================================================================
# COPYRIGHT (C) 1991 - 2012  EDF R&D                  WWW.CODE-ASTER.ORG
# THIS PROGRAM IS FREE SOFTWARE; YOU CAN REDISTRIBUTE IT AND/OR MODIFY
# IT UNDER THE TERMS OF THE GNU GENERAL PUBLIC LICENSE AS PUBLISHED BY
# THE FREE SOFTWARE FOUNDATION; EITHER VERSION 2 OF THE LICENSE, OR
# (AT YOUR OPTION) ANY LATER VERSION.
#
# THIS PROGRAM IS DISTRIBUTED IN THE HOPE THAT IT WILL BE USEFUL, BUT
# WITHOUT ANY WARRANTY; WITHOUT EVEN THE IMPLIED WARRANTY OF
# MERCHANTABILITY OR FITNESS FOR A PARTICULAR PURPOSE. SEE THE GNU
# GENERAL PUBLIC LICENSE FOR MORE DETAILS.
#
# YOU SHOULD HAVE RECEIVED A COPY OF THE GNU GENERAL PUBLIC LICENSE
# ALONG WITH THIS PROGRAM; IF NOT, WRITE TO EDF R&D CODE_ASTER,
#    1 AVENUE DU GENERAL DE GAULLE, 92141 CLAMART CEDEX, FRANCE.
# ======================================================================
#

DEBUT(CODE=_F(NIV_PUB_WEB='INTERNET'),DEBUG=_F(SDVERI='OUI'))

PHI0=DEFI_CONSTANTE(    NOM_RESU='FLUN',  VALE=0.0           )

PHI1=DEFI_CONSTANTE(    NOM_RESU='FLUN',  VALE=-1200.0       )

COEH=DEFI_CONSTANTE(    NOM_RESU='FLUN',  VALE=30.0          )

T_EX=DEFI_CONSTANTE(    NOM_RESU='FLUN',  VALE=140.0         )

T_IM=DEFI_CONSTANTE(    NOM_RESU='FLUN',  VALE=100.0         )

MATERI=DEFI_MATERIAU( THER=_F(  LAMBDA = 0.75, RHO_CP = 2.0))

MAIL=LIRE_MAILLAGE(FORMAT='MED',VERI_MAIL=_F(VERIF='OUI'), )

MAIL=DEFI_GROUP( reuse=MAIL,  MAILLAGE=MAIL,
                 CREA_GROUP_NO=_F( TOUT_GROUP_MA = 'OUI'))

CHMAT=AFFE_MATERIAU(  MAILLAGE=MAIL,
                AFFE=_F(  TOUT = 'OUI', MATER = MATERI) )

MOTH=AFFE_MODELE(  MAILLAGE=MAIL,
                      AFFE=_F( TOUT = 'OUI', MODELISATION = '3D',
                                      PHENOMENE = 'THERMIQUE'))

CHTH=AFFE_CHAR_THER_F(  MODELE=MOTH,
                   FLUX_REP =_F( GROUP_MA = 'G2',    FLUN = PHI1),
                   ECHANGE  =_F( GROUP_MA = 'F1SUP', COEF_H = COEH,
                                                     TEMP_EXT = T_EX),
                   TEMP_IMPO=_F( GROUP_NO = 'F1INF', TEMP = T_IM)
         )

LR8=DEFI_LIST_REEL(        DEBUT=0.,
       INTERVALLE=_F(    JUSQU_A = 10.0,   NOMBRE = 2)
                       )

TEMPE=THER_LINEAIRE(        MODELE=MOTH,
           ETAT_INIT=_F( STATIONNAIRE = 'OUI'),
          INCREMENT=_F( LIST_INST = LR8),
             CHAM_MATER=CHMAT, EXCIT=_F( CHARGE = CHTH)
             )

TEMPE=CALC_CHAMP(reuse=TEMPE,RESULTAT=TEMPE,THERMIQUE=('FLUX_ELNO','FLUX_ELGA'))


TEST_RESU(RESU=(_F(NUME_ORDRE=2,
                   GROUP_NO='A',
                   REFERENCE='ANALYTIQUE',
                   RESULTAT=TEMPE,
                   NOM_CHAM='TEMP',
                   NOM_CMP='TEMP',
                   VALE_CALC=100.000000000,
                   VALE_REFE=100.0,),
                _F(NUME_ORDRE=2,
                   GROUP_NO='B',
                   REFERENCE='ANALYTIQUE',
                   RESULTAT=TEMPE,
                   NOM_CHAM='TEMP',
                   NOM_CMP='TEMP',
                   VALE_CALC=20.000000000,
                   VALE_REFE=20.0,),
                _F(NUME_ORDRE=2,
                   GROUP_NO='G',
                   REFERENCE='ANALYTIQUE',
                   RESULTAT=TEMPE,
                   NOM_CHAM='TEMP',
                   NOM_CMP='TEMP',
                   VALE_CALC=60.000000000,
                   VALE_REFE=60.0,),
                _F(NUME_ORDRE=2,
                   REFERENCE='ANALYTIQUE',
                   POINT=3,
                   RESULTAT=TEMPE,
                   NOM_CHAM='FLUX_ELNO',
                   NOM_CMP='FLUX',
                   VALE_CALC=960.000000000,
                   VALE_REFE=960.0,
                   MAILLE='M1',),
                _F(NUME_ORDRE=2,
                   REFERENCE='ANALYTIQUE',
                   POINT=2,
                   RESULTAT=TEMPE,
                   NOM_CHAM='FLUX_ELNO',
                   NOM_CMP='FLUY',
                   VALE_CALC=720.000000000,
                   VALE_REFE=720.0,
                   MAILLE='M2',),
                _F(NUME_ORDRE=2,
                   REFERENCE='ANALYTIQUE',
                   POINT=3,
                   RESULTAT=TEMPE,
                   NOM_CHAM='FLUX_ELGA',
                   NOM_CMP='FLUX',
                   VALE_CALC=960.000000000,
                   VALE_REFE=960.0,
                   MAILLE='M1',),
                _F(NUME_ORDRE=2,
                   REFERENCE='ANALYTIQUE',
                   POINT=2,
                   RESULTAT=TEMPE,
                   NOM_CHAM='FLUX_ELGA',
                   NOM_CMP='FLUY',
                   VALE_CALC=720.000000000,
                   VALE_REFE=720.0,
                   MAILLE='M2',),
                ),
          )

FIN()
