# MODIF  DATE 12/05/2009   AUTEUR PELLET J.PELLET 
# TITRE MUR PLAN EN THERMIQUE STATIONNAIRE (TETRA4)
# tpll01h.para = tps_job 60 mem_job 64Mo ncpus 1 liste_test S
#            CONFIGURATION MANAGEMENT OF EDF VERSION
# ======================================================================
# COPYRIGHT (C) 1991 - 2001  EDF R&D                  WWW.CODE-ASTER.ORG
# THIS PROGRAM IS FREE SOFTWARE; YOU CAN REDISTRIBUTE IT AND/OR MODIFY
# IT UNDER THE TERMS OF THE GNU GENERAL PUBLIC LICENSE AS PUBLISHED BY
# THE FREE SOFTWARE FOUNDATION; EITHER VERSION 2 OF THE LICENSE, OR
# (AT YOUR OPTION) ANY LATER VERSION.
#
# THIS PROGRAM IS DISTRIBUTED IN THE HOPE THAT IT WILL BE USEFUL, BUT
# WITHOUT ANY WARRANTY; WITHOUT EVEN THE IMPLIED WARRANTY OF
# MERCHANTABILITY OR FITNESS FOR A PARTICULAR PURPOSE. SEE THE GNU
# GENERAL PUBLIC LICENSE FOR MORE DETAILS.
#
# YOU SHOULD HAVE RECEIVED A COPY OF THE GNU GENERAL PUBLIC LICENSE
# ALONG WITH THIS PROGRAM; IF NOT, WRITE TO EDF R&D CODE_ASTER,
#    1 AVENUE DU GENERAL DE GAULLE, 92141 CLAMART CEDEX, FRANCE.
# ======================================================================
#CAS_TEST__: TPLL01H
# CAS TEST TPLL01H

DEBUT(CODE=_F( NOM = 'TPLL01H',NIV_PUB_WEB='INTERNET'),DEBUG=_F(SDVERI='OUI'))

# PRE_GIBI();


PHI0=DEFI_CONSTANTE(    NOM_RESU='FLUN',  VALE=0.0           )

PHI1=DEFI_CONSTANTE(    NOM_RESU='FLUN',  VALE=-1200.0       )

COEH=DEFI_CONSTANTE(    NOM_RESU='FLUN',  VALE=30.0          )

T_EX=DEFI_CONSTANTE(    NOM_RESU='FLUN',  VALE=140.0         )

T_IM=DEFI_CONSTANTE(    NOM_RESU='FLUN',  VALE=100.0         )

MATERI=DEFI_MATERIAU( THER=_F(  LAMBDA = 0.75, RHO_CP = 2.0))

MAIL=LIRE_MAILLAGE( )

MAIL=DEFI_GROUP(reuse=MAIL,MAILLAGE=MAIL, CREA_GROUP_NO=_F( TOUT_GROUP_MA = 'OUI'))

CHMAT=AFFE_MATERIAU(  MAILLAGE=MAIL,
                AFFE=_F(  TOUT = 'OUI', MATER = MATERI) )

MOTH=AFFE_MODELE(  MAILLAGE=MAIL,
#                     AFFE:(TOUT : 'OUI' MODELISATION:'3D'
   AFFE=_F( GROUP_MA = ('VOLU','ECHA','FLUX','F1INF',), MODELISATION = '3D',
                                      PHENOMENE = 'THERMIQUE'))

CHTH=AFFE_CHAR_THER_F(  MODELE=MOTH,
          FLUX_REP=_F( GROUP_MA = 'FLUX',  FLUN = PHI1),
           ECHANGE=_F( GROUP_MA = 'ECHA',  COEF_H = COEH, TEMP_EXT = T_EX),
          TEMP_IMPO=_F( GROUP_NO = 'F1INF',   TEMP = T_IM)
         )

LR8=DEFI_LIST_REEL(        DEBUT=0.,
       INTERVALLE=_F(    JUSQU_A = 10.0,   NOMBRE = 2)
                       )

TEMPE=THER_LINEAIRE(        MODELE=MOTH,
           ETAT_INIT=_F( STATIONNAIRE = 'OUI'),
          INCREMENT=_F( LIST_INST = LR8),
           PARM_THETA=1.,
             CHAM_MATER=CHMAT, EXCIT=_F( CHARGE = CHTH)
             )


TEMPE=CALC_ELEM( reuse=TEMPE,
                 RESULTAT=TEMPE,
                 OPTION=('FLUX_ELNO_TEMP',
                 'FLUX_ELGA_TEMP',),);

TEST_RESU(RESU=(
   _F( RESULTAT = TEMPE, NUME_ORDRE=2, NOM_CHAM='TEMP',
   GROUP_NO = 'A',        NOM_CMP = 'TEMP', VALE = 100.0),
   _F( RESULTAT = TEMPE, NUME_ORDRE=2, NOM_CHAM='TEMP',
   GROUP_NO = 'B',        NOM_CMP = 'TEMP', VALE = 20.0),
   _F( RESULTAT = TEMPE, NUME_ORDRE=2, NOM_CHAM='TEMP',
   GROUP_NO = 'G',        NOM_CMP = 'TEMP', VALE = 60.0),

   _F( RESULTAT = TEMPE, NUME_ORDRE=2, NOM_CHAM='FLUX_ELNO_TEMP',
   MAILLE = 'M1', POINT = 3, NOM_CMP = 'FLUX', VALE = 960.0),
   _F( RESULTAT = TEMPE, NUME_ORDRE=2, NOM_CHAM='FLUX_ELNO_TEMP',
   MAILLE = 'M2', POINT = 2, NOM_CMP = 'FLUY', VALE = 720.0),
      ),);

MACR_INFO_MAIL( MAILLAGE=MAIL,
                QUALITE='OUI',
                INTERPENETRATION='OUI',
                CONNEXITE='OUI',
                TAILLE='OUI'
               )

FIN()
#
