# MODIF  DATE 10/10/2012   AUTEUR COURTOIS M.COURTOIS 
# TITRE MUR PLAN EN THERMIQUE STATIONNAIRE ANISOTROPE (QUAD4)
# tpll100b.para = tps_job 60 mem_job 512Mo ncpus 1 liste_test S
#            CONFIGURATION MANAGEMENT OF EDF VERSION
# ======================================================================
# COPYRIGHT (C) 1991 - 2012  EDF R&D                  WWW.CODE-ASTER.ORG
# THIS PROGRAM IS FREE SOFTWARE; YOU CAN REDISTRIBUTE IT AND/OR MODIFY
# IT UNDER THE TERMS OF THE GNU GENERAL PUBLIC LICENSE AS PUBLISHED BY
# THE FREE SOFTWARE FOUNDATION; EITHER VERSION 2 OF THE LICENSE, OR
# (AT YOUR OPTION) ANY LATER VERSION.
#
# THIS PROGRAM IS DISTRIBUTED IN THE HOPE THAT IT WILL BE USEFUL, BUT
# WITHOUT ANY WARRANTY; WITHOUT EVEN THE IMPLIED WARRANTY OF
# MERCHANTABILITY OR FITNESS FOR A PARTICULAR PURPOSE. SEE THE GNU
# GENERAL PUBLIC LICENSE FOR MORE DETAILS.
#
# YOU SHOULD HAVE RECEIVED A COPY OF THE GNU GENERAL PUBLIC LICENSE
# ALONG WITH THIS PROGRAM; IF NOT, WRITE TO EDF R&D CODE_ASTER,
#    1 AVENUE DU GENERAL DE GAULLE, 92141 CLAMART CEDEX, FRANCE.
# ======================================================================
#CAS_TEST__: TPLL100B
# CAS TEST TPLL100B

DEBUT(CODE=_F(NOM='TPLL100B',NIV_PUB_WEB='INTERNET'),DEBUG=_F(SDVERI='OUI'))

PHI0=DEFI_CONSTANTE(    NOM_RESU='FLUN',  VALE=0.0           )

PHI1=DEFI_CONSTANTE(    NOM_RESU='FLUN',  VALE=-1200.0       )

PHI2=DEFI_CONSTANTE(    NOM_RESU='FLUN',  VALE=1200.0       )

PHIP=DEFI_CONSTANTE(    NOM_RESU='FLUN',  VALE=400.   )

PHIN=DEFI_CONSTANTE(    NOM_RESU='FLUN',  VALE=-400.   )

T_IM=DEFI_CONSTANTE(    NOM_RESU='FLUN',  VALE=100.0         )

MATERI=DEFI_MATERIAU( THER_ORTH=_F(  LAMBDA_L = 1.,
          LAMBDA_T = 0.5, LAMBDA_N = 1., RHO_CP = 2.0))

MAIL=LIRE_MAILLAGE( )

MAIL=DEFI_GROUP(reuse=MAIL,MAILLAGE=MAIL, CREA_GROUP_NO=_F( TOUT_GROUP_MA = 'OUI'))

CHMAT=AFFE_MATERIAU(  MAILLAGE=MAIL,
                AFFE=_F(  TOUT = 'OUI', MATER = MATERI) )

MOTH=AFFE_MODELE(  MAILLAGE=MAIL,
   AFFE=_F( GROUP_MA = ('VOLU','FLUX','FPOS','FNEG',), MODELISATION = 'PLAN',
                                      PHENOMENE = 'THERMIQUE'))

ESSAI=AFFE_CARA_ELEM(MODELE=MOTH,

                MASSIF=_F(
                MAILLE = ('M1','M2','M3','M4',),
                ANGL_REP = (81.869897,  0.,  0., )))

CHTH=AFFE_CHAR_THER_F(  MODELE=MOTH,
          FLUX_REP=_F( GROUP_MA = 'FLUX',  FLUN = PHI1)
         )

CHTH2=AFFE_CHAR_THER_F(  MODELE=MOTH,

                   FLUX_REP=_F( GROUP_MA = 'FPOS',  FLUN = PHIN)

         )

CHTH3=AFFE_CHAR_THER_F(  MODELE=MOTH,

                   FLUX_REP=_F( GROUP_MA = 'FNEG',  FLUN = PHIP)

         )

CHTH4=AFFE_CHAR_THER_F(  MODELE=MOTH,

                   TEMP_IMPO=_F( NOEUD = ('N4','N5','N6',),  TEMP = T_IM)

         )

LR8=DEFI_LIST_REEL(        DEBUT=0.,
       INTERVALLE=_F(    JUSQU_A = 10.0,   NOMBRE = 2)
                       )

TEMPE=THER_LINEAIRE(        MODELE=MOTH,
           ETAT_INIT=_F( STATIONNAIRE = 'OUI'),
          INCREMENT=_F( LIST_INST = LR8),
           PARM_THETA=1.,
             CHAM_MATER=CHMAT,EXCIT=( _F( CHARGE = CHTH),
          _F( CHARGE = CHTH2), _F( CHARGE = CHTH3),
          _F( CHARGE = CHTH4)),
           CARA_ELEM=ESSAI
             )

TEMPE=CALC_CHAMP(reuse=TEMPE,THERMIQUE=('FLUX_ELNO','FLUX_ELGA'),RESULTAT=TEMPE)



TEST_RESU(RESU=(_F(NUME_ORDRE=2,
                   RESULTAT=TEMPE,
                   NOM_CHAM='TEMP',
                   NOEUD='N5',
                   NOM_CMP='TEMP',
                   VALE_CALC=100.0,
                   TOLE_MACHINE=1.E-3,),
                _F(NUME_ORDRE=2,
                   RESULTAT=TEMPE,
                   NOM_CHAM='TEMP',
                   NOEUD='N2',
                   NOM_CMP='TEMP',
                   VALE_CALC=20.0,
                   TOLE_MACHINE=1.E-3,),
                _F(NUME_ORDRE=2,
                   RESULTAT=TEMPE,
                   NOM_CHAM='TEMP',
                   NOEUD='N8',
                   NOM_CMP='TEMP',
                   VALE_CALC=60.0,
                   TOLE_MACHINE=1.E-3,),
                _F(NUME_ORDRE=2,
                   POINT=3,
                   RESULTAT=TEMPE,
                   NOM_CHAM='FLUX_ELNO',
                   NOM_CMP='FLUX',
                   VALE_CALC=720.0,
                   TOLE_MACHINE=1.E-3,
                   MAILLE='M1',),
                _F(NUME_ORDRE=2,
                   POINT=2,
                   RESULTAT=TEMPE,
                   NOM_CHAM='FLUX_ELNO',
                   NOM_CMP='FLUY',
                   VALE_CALC=1040.0,
                   TOLE_MACHINE=1.E-3,
                   MAILLE='M2',),
                _F(NUME_ORDRE=2,
                   POINT=3,
                   RESULTAT=TEMPE,
                   NOM_CHAM='FLUX_ELGA',
                   NOM_CMP='FLUX',
                   VALE_CALC=720.0,
                   TOLE_MACHINE=1.E-3,
                   MAILLE='M1',),
                _F(NUME_ORDRE=2,
                   POINT=2,
                   RESULTAT=TEMPE,
                   NOM_CHAM='FLUX_ELGA',
                   NOM_CMP='FLUY',
                   VALE_CALC=1040.0,
                   TOLE_MACHINE=1.E-3,
                   MAILLE='M2',),
                ),
          )

FIN()
#
