# MODIF  DATE 13/01/2011   AUTEUR PELLET J.PELLET 
# TITRE Calcul d'indicateur d'erreur en thermique lineaire
#            CONFIGURATION MANAGEMENT OF EDF VERSION
# ======================================================================
# COPYRIGHT (C) 1991 - 2011  EDF R&D                  WWW.CODE-ASTER.ORG
# THIS PROGRAM IS FREE SOFTWARE; YOU CAN REDISTRIBUTE IT AND/OR MODIFY
# IT UNDER THE TERMS OF THE GNU GENERAL PUBLIC LICENSE AS PUBLISHED BY
# THE FREE SOFTWARE FOUNDATION; EITHER VERSION 2 OF THE LICENSE, OR
# (AT YOUR OPTION) ANY LATER VERSION.
#
# THIS PROGRAM IS DISTRIBUTED IN THE HOPE THAT IT WILL BE USEFUL, BUT
# WITHOUT ANY WARRANTY; WITHOUT EVEN THE IMPLIED WARRANTY OF
# MERCHANTABILITY OR FITNESS FOR A PARTICULAR PURPOSE. SEE THE GNU
# GENERAL PUBLIC LICENSE FOR MORE DETAILS.
#
# YOU SHOULD HAVE RECEIVED A COPY OF THE GNU GENERAL PUBLIC LICENSE
# ALONG WITH THIS PROGRAM; IF NOT, WRITE TO EDF R&D CODE_ASTER,
#    1 AVENUE DU GENERAL DE GAULLE, 92141 CLAMART CEDEX, FRANCE.
# ======================================================================
# Calcul de l'indicateur d'erreur en thermique lineaire stationnaire (mur plan
# en tetra10) couplee avec un remaillage sur l'erreur totale via HOMARD.
# Cas test de non-regression informatique sur les options 'ERTH_ELEM'
# (valeurs par element de l'indicateur), 'ERTH_ELNO' (valeurs aux noeuds
# par elements) et de leurs adherence avec le processus de remaillage.

#-------------------------------------------------------------------------------
#                            PREALABLES
#-------------------------------------------------------------------------------
DEBUT(CODE=_F(NOM='TPLL01J', NIV_PUB_WEB='INTERNET', VISU_EFICAS='NON'), DEBUG=_F(SDVERI='OUI'))
# Concepts a chaque iteration
nbcalc = 3
M=[None]*(nbcalc+0)
MODE=[None]*nbcalc
MATE=[None]*nbcalc
CHA1=[None]*nbcalc
RESU=[None]*nbcalc

MATERI=DEFI_MATERIAU( THER=_F(  LAMBDA = 0.75, RHO_CP = 2.0))
#
MD1=LIRE_MAILLAGE( )
M[1]=CREA_MAILLAGE(MAILLAGE=MD1,
                   LINE_QUAD=_F(TOUT='OUI',),);

#-------------------------------------------------------------------------------
#                     BOUCLE CALCUL INDICATEUR/REMAILLAGE
#-------------------------------------------------------------------------------
# En fait on fait nbcalc-1 iterations
for k in range(1,nbcalc):

# Affectation des materiaux/modele/chargement
   MATE[k]=AFFE_MATERIAU( MAILLAGE=M[k],
                AFFE=_F(  TOUT = 'OUI', MATER = MATERI) )
   MODE[k]=AFFE_MODELE( MAILLAGE=M[k],
                      AFFE=_F( TOUT = 'OUI', MODELISATION = '3D',
                                      PHENOMENE = 'THERMIQUE'))
   if ( k==1 ) :
     M[k]=MODI_MAILLAGE( reuse=M[k],
                 MAILLAGE=M[k],
                 ORIE_PEAU_3D=_F(  GROUP_MA = ( 'ECHA', 'F1INF', 'FLUX', 'Z_0', 'Z_0_05', 'FACE_A', 'FACE_B', ),  )
                      )
   CHA1[k]=AFFE_CHAR_THER( MODELE=MODE[k],
             TEMP_IMPO=_F( GROUP_MA = 'F1INF',   TEMP = 100.),
             FLUX_REP=(_F( GROUP_MA = 'FLUX',    FLUN = -1200.),
                       _F( GROUP_MA = ('Z_0', 'Z_0_05', 'FACE_A', 'FACE_B',),    FLUN = 0.),),
             ECHANGE=_F( GROUP_MA = 'ECHA',  COEF_H = 30., TEMP_EXT = 140.))

# Calcul thermique

   RESU[k]=THER_LINEAIRE( MODELE=MODE[k],
           CHAM_MATER=MATE[k], EXCIT=_F( CHARGE = CHA1[k]))

# Calcul de l'indicateur d'erreur
   RESU[k]=CALC_ELEM( reuse=RESU[k],
              TOUT='OUI',
               RESULTAT=RESU[k],
#              INFO=2,
              OPTION=('FLUX_ELNO','ERTH_ELEM','ERTH_ELNO'))

   IMPR_RESU( FORMAT='MED', RESU=_F( RESULTAT = RESU[k]))
###   IMPR_RESU( FORMAT='RESULTAT', RESU=_F( RESULTAT = RESU[k]))

   if ( k < nbcalc-1 ) :
# Adaptation du maillage en se basant sur la composante ERTABS du champ
# ERTH_ELEM de RESU[k]. Critere de raffinement = 2%.
# Ancien maillage: M[k]. Maillage raffine: M[k+1]
#
     M[k+1]=CO('M_%d' % (k+1))

     MACR_ADAP_MAIL( ADAPTATION='RAFFINEMENT',
                     MAILLAGE_N = M[k],
                     MAILLAGE_NP1 = M[k+1],
                     RESULTAT_N = RESU[k],
                     NOM_CHAM = 'ERTH_ELEM',
                     NUME_ORDRE = 0,
                     NOM_CMP = 'ERTABS',
                     CRIT_RAFF_PE = 0.05,
                     NIVE_MAX = 5,
                     QUALITE='OUI' )

# Tests de non-regression de ERTH_ELEM/ERTH_ELNO_TEMP et de la
# connection ASTER/HOMARD
# La maille MA1 est le triangle du groupe TEST_S
TEST_RESU(RESU=(
            _F( RESULTAT = RESU[1],          NUME_ORDRE = 0,
                NOM_CHAM = 'ERTH_ELEM', MAILLE = 'MA1',
                POINT =1,                    PRECISION = 1.E-5,
                NOM_CMP = 'ERTREL',          REFERENCE='NON_REGRESSION',
                VALE = 3.3606481315358E-05,
                VERSION = '9.05.04',              CRITERE='RELATIF')))
TEST_RESU(RESU=(
            _F( RESULTAT = RESU[1],          NUME_ORDRE = 0,
                NOM_CHAM = 'ERTH_ELNO', MAILLE = 'MA1',
                NOEUD = 'NO4',               PRECISION = 1.E-5,
                NOM_CMP = 'ERTREL',          REFERENCE='NON_REGRESSION',
                VALE = 3.3606481315358E-05,
                VERSION = '9.05.04',              CRITERE='RELATIF')))

# La maille MA65 est le tetraedre du groupe TEST_V
TEST_RESU(RESU=(
            _F( RESULTAT = RESU[2],          NUME_ORDRE = 0,
                NOM_CHAM = 'ERTH_ELEM', MAILLE = 'M65',
                POINT =1,
                NOM_CMP = 'ERTREL',          REFERENCE='NON_REGRESSION',
                VALE = 3.2310167150848E-05,  PRECISION = 1.E-5,
                VERSION = '9.05.04', CRITERE='RELATIF')))
FIN()
