# TITRE DISTRIBUTION DE LA TEMPERATURE DANS SECTION D'UNE CHEMINEE
# ======================================================================
# COPYRIGHT (C) 1991 - 2012  EDF R&D                  WWW.CODE-ASTER.ORG
# THIS PROGRAM IS FREE SOFTWARE; YOU CAN REDISTRIBUTE IT AND/OR MODIFY
# IT UNDER THE TERMS OF THE GNU GENERAL PUBLIC LICENSE AS PUBLISHED BY
# THE FREE SOFTWARE FOUNDATION; EITHER VERSION 2 OF THE LICENSE, OR   
# (AT YOUR OPTION) ANY LATER VERSION.                                 
#
# THIS PROGRAM IS DISTRIBUTED IN THE HOPE THAT IT WILL BE USEFUL, BUT 
# WITHOUT ANY WARRANTY; WITHOUT EVEN THE IMPLIED WARRANTY OF          
# MERCHANTABILITY OR FITNESS FOR A PARTICULAR PURPOSE. SEE THE GNU    
# GENERAL PUBLIC LICENSE FOR MORE DETAILS.                            
#
# YOU SHOULD HAVE RECEIVED A COPY OF THE GNU GENERAL PUBLIC LICENSE   
# ALONG WITH THIS PROGRAM; IF NOT, WRITE TO EDF R&D CODE_ASTER,       
#    1 AVENUE DU GENERAL DE GAULLE, 92141 CLAMART CEDEX, FRANCE.      
# ======================================================================
#
# MAILLES : QUAD4
#
# LES CALCULS SONT EFFECTUES EN DEGRE F ET EN FEET
#

DEBUT(  CODE=_F( NOM = 'TPLP303D',NIV_PUB_WEB='INTERNET') )

#
# LECTURE DU MAILLAGE ----------------------------------------------
#

MAIL=LIRE_MAILLAGE()

#
# DEFINITION DES CHARGEMENTS ET DU MATERIAU ------------------------
#


MATE=DEFI_MATERIAU(  THER=_F(  RHO_CP = 1.0, LAMBDA = 1.0) )

#
# AFFECTATIONS: MATERIAU  MODELE  CHARGEMENT ----------------------
#


CHMAT=AFFE_MATERIAU(    MAILLAGE=MAIL,
                           AFFE=_F(  TOUT = 'OUI',  MATER = MATE)
                        )

MOTH=AFFE_MODELE(   MAILLAGE=MAIL,
                       AFFE=_F( TOUT = 'OUI', MODELISATION = 'PLAN',
                                        PHENOMENE = 'THERMIQUE')
                     )

CHTH=AFFE_CHAR_THER(   MODELE=MOTH,ECHANGE=(
                           _F(  GROUP_MA = 'CONV_INT',
                                       COEF_H = 12.E0,
                                     TEMP_EXT = 100.E0),
                           _F(  GROUP_MA = 'CONV_EXT',
                                       COEF_H = 3.E0,
                                     TEMP_EXT = 0.E0))
                        )

#
# RESOLUTION -----------------------------------------------------------
#


TEMPE=THER_LINEAIRE(   MODELE=MOTH,
                            CHAM_MATER=CHMAT,
                            EXCIT=_F(  CHARGE = CHTH)
                         )

#
# ANALYSE DES RESULTATS ------------------------------------------------
#
TEMP=CREA_CHAMP(  OPERATION='EXTR', TYPE_CHAM='NOEU_TEMP_R',
NOM_CHAM='TEMP', RESULTAT=TEMPE, NUME_ORDRE=0 )

TEST_RESU(CHAM_NO=(_F(NOEUD='N7',
                      NOM_CMP='TEMP',
                      PRECISION=1.E-2,
                      CHAM_GD=TEMP,
                      VALE_CALC=93.404360088,
                      VALE_REFE=93.700000000000003,
                      REFERENCE='NON_DEFINI',),
                   _F(NOEUD='N7',
                      CRITERE='ABSOLU',
                      NOM_CMP='TEMP',
                      PRECISION=1.0,
                      CHAM_GD=TEMP,
                      VALE_CALC=93.404360088,
                      VALE_REFE=93.700000000000003,
                      REFERENCE='NON_DEFINI',),
                   _F(NOEUD='N4',
                      NOM_CMP='TEMP',
                      PRECISION=0.02,
                      CHAM_GD=TEMP,
                      VALE_CALC=94.491928036,
                      VALE_REFE=93.200000000000003,
                      REFERENCE='NON_DEFINI',),
                   _F(NOEUD='N4',
                      CRITERE='ABSOLU',
                      NOM_CMP='TEMP',
                      PRECISION=2.0,
                      CHAM_GD=TEMP,
                      VALE_CALC=94.491928036,
                      VALE_REFE=93.200000000000003,
                      REFERENCE='NON_DEFINI',),
                   _F(NOEUD='N1',
                      NOM_CMP='TEMP',
                      PRECISION=0.029999999999999999,
                      CHAM_GD=TEMP,
                      VALE_CALC=85.631372848,
                      VALE_REFE=87.599999999999994,
                      REFERENCE='NON_DEFINI',),
                   _F(NOEUD='N1',
                      CRITERE='ABSOLU',
                      NOM_CMP='TEMP',
                      PRECISION=2.0,
                      CHAM_GD=TEMP,
                      VALE_CALC=85.631372848,
                      VALE_REFE=87.599999999999994,
                      REFERENCE='NON_DEFINI',),
                   _F(NOEUD='N10',
                      NOM_CMP='TEMP',
                      PRECISION=0.02,
                      CHAM_GD=TEMP,
                      VALE_CALC=57.151865926,
                      VALE_REFE=56.299999999999997,
                      REFERENCE='NON_DEFINI',),
                   _F(NOEUD='N10',
                      CRITERE='ABSOLU',
                      NOM_CMP='TEMP',
                      PRECISION=1.0,
                      CHAM_GD=TEMP,
                      VALE_CALC=57.151865926,
                      VALE_REFE=56.299999999999997,
                      REFERENCE='NON_DEFINI',),
                   _F(NOEUD='N8',
                      NOM_CMP='TEMP',
                      PRECISION=1.E-2,
                      CHAM_GD=TEMP,
                      VALE_CALC=54.888767830,
                      VALE_REFE=54.600000000000001,
                      REFERENCE='NON_DEFINI',),
                   _F(NOEUD='N8',
                      CRITERE='ABSOLU',
                      NOM_CMP='TEMP',
                      PRECISION=1.0,
                      CHAM_GD=TEMP,
                      VALE_CALC=54.888767830,
                      VALE_REFE=54.600000000000001,
                      REFERENCE='NON_DEFINI',),
                   _F(NOEUD='N5',
                      NOM_CMP='TEMP',
                      PRECISION=1.E-2,
                      CHAM_GD=TEMP,
                      VALE_CALC=47.419547159,
                      VALE_REFE=47.5,
                      REFERENCE='NON_DEFINI',),
                   _F(NOEUD='N5',
                      CRITERE='ABSOLU',
                      NOM_CMP='TEMP',
                      PRECISION=1.0,
                      CHAM_GD=TEMP,
                      VALE_CALC=47.419547159,
                      VALE_REFE=47.5,
                      REFERENCE='NON_DEFINI',),
                   _F(NOEUD='N2',
                      NOM_CMP='TEMP',
                      PRECISION=0.080000000000000002,
                      CHAM_GD=TEMP,
                      VALE_CALC=27.449998130,
                      VALE_REFE=29.600000000000001,
                      REFERENCE='NON_DEFINI',),
                   _F(NOEUD='N2',
                      CRITERE='ABSOLU',
                      NOM_CMP='TEMP',
                      PRECISION=3.0,
                      CHAM_GD=TEMP,
                      VALE_CALC=27.449998130,
                      VALE_REFE=29.600000000000001,
                      REFERENCE='NON_DEFINI',),
                   _F(NOEUD='N12',
                      NOM_CMP='TEMP',
                      PRECISION=1.E-2,
                      CHAM_GD=TEMP,
                      VALE_CALC=22.321052991,
                      VALE_REFE=22.199999999999999,
                      REFERENCE='NON_DEFINI',),
                   _F(NOEUD='N12',
                      CRITERE='ABSOLU',
                      NOM_CMP='TEMP',
                      PRECISION=1.0,
                      CHAM_GD=TEMP,
                      VALE_CALC=22.321052991,
                      VALE_REFE=22.199999999999999,
                      REFERENCE='NON_DEFINI',),
                   _F(NOEUD='N11',
                      NOM_CMP='TEMP',
                      PRECISION=1.E-2,
                      CHAM_GD=TEMP,
                      VALE_CALC=21.364061299,
                      VALE_REFE=21.399999999999999,
                      REFERENCE='NON_DEFINI',),
                   _F(NOEUD='N11',
                      CRITERE='ABSOLU',
                      NOM_CMP='TEMP',
                      PRECISION=1.0,
                      CHAM_GD=TEMP,
                      VALE_CALC=21.364061299,
                      VALE_REFE=21.399999999999999,
                      REFERENCE='NON_DEFINI',),
                   _F(NOEUD='N9',
                      NOM_CMP='TEMP',
                      PRECISION=0.059999999999999998,
                      CHAM_GD=TEMP,
                      VALE_CALC=17.325954291,
                      VALE_REFE=18.300000000000001,
                      REFERENCE='NON_DEFINI',),
                   _F(NOEUD='N9',
                      CRITERE='ABSOLU',
                      NOM_CMP='TEMP',
                      PRECISION=1.0,
                      CHAM_GD=TEMP,
                      VALE_CALC=17.325954291,
                      VALE_REFE=18.300000000000001,
                      REFERENCE='NON_DEFINI',),
                   _F(NOEUD='N6',
                      NOM_CMP='TEMP',
                      PRECISION=0.080000000000000002,
                      CHAM_GD=TEMP,
                      VALE_CALC=12.542471020,
                      VALE_REFE=11.699999999999999,
                      REFERENCE='NON_DEFINI',),
                   _F(NOEUD='N6',
                      CRITERE='ABSOLU',
                      NOM_CMP='TEMP',
                      PRECISION=1.0,
                      CHAM_GD=TEMP,
                      VALE_CALC=12.542471020,
                      VALE_REFE=11.699999999999999,
                      REFERENCE='NON_DEFINI',),
                   _F(NOEUD='N3',
                      NOM_CMP='TEMP',
                      PRECISION=0.34000000000000002,
                      CHAM_GD=TEMP,
                      VALE_CALC=3.135617755,
                      VALE_REFE=4.7000000000000002,
                      REFERENCE='NON_DEFINI',),
                   _F(NOEUD='N3',
                      CRITERE='ABSOLU',
                      NOM_CMP='TEMP',
                      PRECISION=2.0,
                      CHAM_GD=TEMP,
                      VALE_CALC=3.135617755,
                      VALE_REFE=4.7000000000000002,
                      REFERENCE='NON_DEFINI',),
                   ),
          )

FIN()
#
#
