# TITRE DISTRIBUTION DE LA TEMPERATURE DANS SECTION D'UNE CHEMINEE
# ======================================================================
# COPYRIGHT (C) 1991 - 2015  EDF R&D                  WWW.CODE-ASTER.ORG
# THIS PROGRAM IS FREE SOFTWARE; YOU CAN REDISTRIBUTE IT AND/OR MODIFY
# IT UNDER THE TERMS OF THE GNU GENERAL PUBLIC LICENSE AS PUBLISHED BY
# THE FREE SOFTWARE FOUNDATION; EITHER VERSION 2 OF THE LICENSE, OR   
# (AT YOUR OPTION) ANY LATER VERSION.                                 
#
# THIS PROGRAM IS DISTRIBUTED IN THE HOPE THAT IT WILL BE USEFUL, BUT 
# WITHOUT ANY WARRANTY; WITHOUT EVEN THE IMPLIED WARRANTY OF          
# MERCHANTABILITY OR FITNESS FOR A PARTICULAR PURPOSE. SEE THE GNU    
# GENERAL PUBLIC LICENSE FOR MORE DETAILS.                            
#
# YOU SHOULD HAVE RECEIVED A COPY OF THE GNU GENERAL PUBLIC LICENSE   
# ALONG WITH THIS PROGRAM; IF NOT, WRITE TO EDF R&D CODE_ASTER,       
#    1 AVENUE DU GENERAL DE GAULLE, 92141 CLAMART CEDEX, FRANCE.      
# ======================================================================
#
# MAILLES : TRIA6 QUAD8
#

DEBUT(  CODE=_F(NIV_PUB_WEB='INTERNET'))

#
# LECTURE DU MAILLAGE ----------------------------------------------
#

MAIL=LIRE_MAILLAGE(FORMAT='MED',)

#
# DEFINITION DES CHARGEMENTS ET DU MATERIAU ------------------------
#


MATE=DEFI_MATERIAU( THER=_F( RHO_CP = 1.0, LAMBDA = 1.7307))

#
# AFFECTATIONS: MATERIAU  MODELE  CHARGEMENT ----------------------
#


CHMAT=AFFE_MATERIAU(   MAILLAGE=MAIL,
                     AFFE=_F( TOUT = 'OUI',  MATER = MATE))

MOTH=AFFE_MODELE(  MAILLAGE=MAIL,
               AFFE=_F( TOUT = 'OUI', MODELISATION = 'PLAN',
                                   PHENOMENE = 'THERMIQUE'))

CHTH=AFFE_CHAR_THER(  MODELE=MOTH,ECHANGE=(
                        _F( GROUP_MA = 'CONV_INT',
                                   COEF_H = 68.135E0,
                                 TEMP_EXT = 37.778E0),
                        _F( GROUP_MA = 'CONV_EXT',
                                   COEF_H = 17.034E0,
                                 TEMP_EXT = -17.778E0))
         )

#
# RESOLUTION -----------------------------------------------------------
#


TEMPE=THER_LINEAIRE(   MODELE=MOTH,
                            CHAM_MATER=CHMAT,
                            EXCIT=_F(  CHARGE = CHTH)
                         )

#
# ANALYSE DES RESULTATS ------------------------------------------------
#
TEMP=CREA_CHAMP(  OPERATION='EXTR', TYPE_CHAM='NOEU_TEMP_R',
NOM_CHAM='TEMP', RESULTAT=TEMPE,
                   NUME_ORDRE=0)

TEST_RESU(CHAM_NO=(_F(NOEUD='N61',
                      NOM_CMP='TEMP',
                      PRECISION=1.E-2,
                      CHAM_GD=TEMP,
                      VALE_CALC=34.181017535,
                      VALE_REFE=34.277999999999999,
                      REFERENCE='NON_DEFINI',),
                   _F(NOEUD='N84',
                      NOM_CMP='TEMP',
                      PRECISION=0.02,
                      CHAM_GD=TEMP,
                      VALE_CALC=13.277327174,
                      VALE_REFE=13.5,
                      REFERENCE='NON_DEFINI',),
                   _F(NOEUD='N95',
                      NOM_CMP='TEMP',
                      PRECISION=0.050000000000000003,
                      CHAM_GD=TEMP,
                      VALE_CALC=-5.681205333,
                      VALE_REFE=-5.444,
                      REFERENCE='NON_DEFINI',),
                   _F(NOEUD='N33',
                      NOM_CMP='TEMP',
                      PRECISION=1.E-2,
                      CHAM_GD=TEMP,
                      VALE_CALC=33.847152047,
                      VALE_REFE=34.0,
                      REFERENCE='NON_DEFINI',),
                   _F(NOEUD='N63',
                      NOM_CMP='TEMP',
                      PRECISION=0.040000000000000001,
                      CHAM_GD=TEMP,
                      VALE_CALC=12.056307459,
                      VALE_REFE=12.555999999999999,
                      REFERENCE='NON_DEFINI',),
                   _F(NOEUD='N86',
                      NOM_CMP='TEMP',
                      PRECISION=0.070000000000000007,
                      CHAM_GD=TEMP,
                      VALE_CALC=-6.283210686,
                      VALE_REFE=-5.8890000000000002,
                      REFERENCE='NON_DEFINI',),
                   _F(NOEUD='N1',
                      NOM_CMP='TEMP',
                      PRECISION=0.059999999999999998,
                      CHAM_GD=TEMP,
                      VALE_CALC=29.290257699,
                      VALE_REFE=30.888999999999999,
                      REFERENCE='NON_DEFINI',),
                   _F(NOEUD='N35',
                      NOM_CMP='TEMP',
                      PRECISION=0.19,
                      CHAM_GD=TEMP,
                      VALE_CALC=7.012280613,
                      VALE_REFE=8.6110000000000007,
                      REFERENCE='NON_DEFINI',),
                   _F(NOEUD='N65',
                      NOM_CMP='TEMP',
                      PRECISION=0.10000000000000001,
                      CHAM_GD=TEMP,
                      VALE_CALC=-8.299717443,
                      VALE_REFE=-7.6109999999999998,
                      REFERENCE='NON_DEFINI',),
                   _F(NOEUD='N5',
                      CRITERE='ABSOLU',
                      NOM_CMP='TEMP',
                      PRECISION=0.90000000000000002,
                      CHAM_GD=TEMP,
                      VALE_CALC=-2.060527442,
                      VALE_REFE=-1.333,
                      REFERENCE='NON_DEFINI',),
                   _F(NOEUD='N37',
                      NOM_CMP='TEMP',
                      PRECISION=0.029999999999999999,
                      CHAM_GD=TEMP,
                      VALE_CALC=-11.579193699,
                      VALE_REFE=-11.278,
                      REFERENCE='NON_DEFINI',),
                   _F(NOEUD='N9',
                      NOM_CMP='TEMP',
                      PRECISION=1.E-2,
                      CHAM_GD=TEMP,
                      VALE_CALC=-15.286977704,
                      VALE_REFE=-15.167,
                      REFERENCE='NON_DEFINI',),
                   ),
          )

FIN()
#
#
