# TITRE DISTRIBUTION DE LA TEMPERATURE DANS SECTION D'UNE CHEMINEE
#            CONFIGURATION MANAGEMENT OF EDF VERSION
# ======================================================================
# COPYRIGHT (C) 1991 - 2013  EDF R&D                  WWW.CODE-ASTER.ORG
# THIS PROGRAM IS FREE SOFTWARE; YOU CAN REDISTRIBUTE IT AND/OR MODIFY
# IT UNDER THE TERMS OF THE GNU GENERAL PUBLIC LICENSE AS PUBLISHED BY
# THE FREE SOFTWARE FOUNDATION; EITHER VERSION 2 OF THE LICENSE, OR
# (AT YOUR OPTION) ANY LATER VERSION.
#
# THIS PROGRAM IS DISTRIBUTED IN THE HOPE THAT IT WILL BE USEFUL, BUT
# WITHOUT ANY WARRANTY; WITHOUT EVEN THE IMPLIED WARRANTY OF
# MERCHANTABILITY OR FITNESS FOR A PARTICULAR PURPOSE. SEE THE GNU
# GENERAL PUBLIC LICENSE FOR MORE DETAILS.
#
# YOU SHOULD HAVE RECEIVED A COPY OF THE GNU GENERAL PUBLIC LICENSE
# ALONG WITH THIS PROGRAM; IF NOT, WRITE TO EDF R&D CODE_ASTER,
#    1 AVENUE DU GENERAL DE GAULLE, 92141 CLAMART CEDEX, FRANCE.
# ======================================================================
#
# MAILLES : TRIA6 QUAD8
#

DEBUT(  CODE=_F( NOM = 'TPLP303B',NIV_PUB_WEB='INTERNET'))

#
# LECTURE DU MAILLAGE ----------------------------------------------
#

MAIL=LIRE_MAILLAGE()

#
# DEFINITION DES CHARGEMENTS ET DU MATERIAU ------------------------
#


MATE=DEFI_MATERIAU( THER=_F( RHO_CP = 1.0, LAMBDA = 1.7307))

#
# AFFECTATIONS: MATERIAU  MODELE  CHARGEMENT ----------------------
#


CHMAT=AFFE_MATERIAU(   MAILLAGE=MAIL,
                     AFFE=_F( TOUT = 'OUI',  MATER = MATE))

MOTH=AFFE_MODELE(  MAILLAGE=MAIL,
               AFFE=_F( TOUT = 'OUI', MODELISATION = 'PLAN',
                                   PHENOMENE = 'THERMIQUE'))

CHTH=AFFE_CHAR_THER(  MODELE=MOTH,ECHANGE=(
                        _F( GROUP_MA = 'GROUP_MA_CONV_INT',
                                   COEF_H = 68.135E0,
                                 TEMP_EXT = 37.778E0),
                        _F( GROUP_MA = 'GROUP_MA_CONV_EXT',
                                   COEF_H = 17.034E0,
                                 TEMP_EXT = -17.778E0))
         )

#
# RESOLUTION -----------------------------------------------------------
#


TEMPE=THER_LINEAIRE(   MODELE=MOTH,
                            CHAM_MATER=CHMAT,
                            EXCIT=_F(  CHARGE = CHTH)
                         )

#
# ANALYSE DES RESULTATS ------------------------------------------------
#
TEMP=CREA_CHAMP(  OPERATION='EXTR', TYPE_CHAM='NOEU_TEMP_R',
NOM_CHAM='TEMP', RESULTAT=TEMPE,
                   NUME_ORDRE=0)

TEST_RESU(CHAM_NO=(_F(NOEUD='N19',
                      NOM_CMP='TEMP',
                      PRECISION=1.E-2,
                      CHAM_GD=TEMP,
                      VALE_CALC=34.140550067,
                      VALE_REFE=34.277999999999999,
                      REFERENCE='NON_DEFINI',),
                   _F(NOEUD='N26',
                      NOM_CMP='TEMP',
                      PRECISION=0.02,
                      CHAM_GD=TEMP,
                      VALE_CALC=13.276910770,
                      VALE_REFE=13.5,
                      REFERENCE='NON_DEFINI',),
                   _F(NOEUD='N30',
                      NOM_CMP='TEMP',
                      PRECISION=0.059999999999999998,
                      CHAM_GD=TEMP,
                      VALE_CALC=-5.684667060,
                      VALE_REFE=-5.444,
                      REFERENCE='NON_DEFINI',),
                   _F(NOEUD='N11',
                      NOM_CMP='TEMP',
                      PRECISION=1.E-2,
                      CHAM_GD=TEMP,
                      VALE_CALC=33.714483809,
                      VALE_REFE=34.0,
                      REFERENCE='NON_DEFINI',),
                   _F(NOEUD='N20',
                      NOM_CMP='TEMP',
                      PRECISION=0.040000000000000001,
                      CHAM_GD=TEMP,
                      VALE_CALC=12.139913961,
                      VALE_REFE=12.555999999999999,
                      REFERENCE='NON_DEFINI',),
                   _F(NOEUD='N27',
                      NOM_CMP='TEMP',
                      PRECISION=0.070000000000000007,
                      CHAM_GD=TEMP,
                      VALE_CALC=-6.257543020,
                      VALE_REFE=-5.8890000000000002,
                      REFERENCE='NON_DEFINI',),
                   _F(NOEUD='N1',
                      NOM_CMP='TEMP',
                      PRECISION=0.050000000000000003,
                      CHAM_GD=TEMP,
                      VALE_CALC=29.440218991,
                      VALE_REFE=30.888999999999999,
                      REFERENCE='NON_DEFINI',),
                   _F(NOEUD='N12',
                      NOM_CMP='TEMP',
                      PRECISION=0.19,
                      CHAM_GD=TEMP,
                      VALE_CALC=7.056770817,
                      VALE_REFE=8.6110000000000007,
                      REFERENCE='NON_DEFINI',),
                   _F(NOEUD='N21',
                      NOM_CMP='TEMP',
                      PRECISION=0.089999999999999997,
                      CHAM_GD=TEMP,
                      VALE_CALC=-8.272604316,
                      VALE_REFE=-7.6109999999999998,
                      REFERENCE='NON_DEFINI',),
                   _F(NOEUD='N3',
                      NOM_CMP='TEMP',
                      PRECISION=0.5,
                      CHAM_GD=TEMP,
                      VALE_CALC=-1.988351318,
                      VALE_REFE=-1.333,
                      REFERENCE='NON_DEFINI',),
                   _F(NOEUD='N13',
                      NOM_CMP='TEMP',
                      PRECISION=0.029999999999999999,
                      CHAM_GD=TEMP,
                      VALE_CALC=-11.570929453,
                      VALE_REFE=-11.278,
                      REFERENCE='NON_DEFINI',),
                   _F(NOEUD='N5',
                      NOM_CMP='TEMP',
                      PRECISION=1.E-2,
                      CHAM_GD=TEMP,
                      VALE_CALC=-15.273342071,
                      VALE_REFE=-15.167,
                      REFERENCE='NON_DEFINI',),
                   ),
          )

FIN()
#
#
