# ======================================================================
# COPYRIGHT (C) 1991 - 2016  EDF R&D                  WWW.CODE-ASTER.ORG
# THIS PROGRAM IS FREE SOFTWARE; YOU CAN REDISTRIBUTE IT AND/OR MODIFY
# IT UNDER THE TERMS OF THE GNU GENERAL PUBLIC LICENSE AS PUBLISHED BY
# THE FREE SOFTWARE FOUNDATION; EITHER VERSION 2 OF THE LICENSE, OR
# (AT YOUR OPTION) ANY LATER VERSION.
#
# THIS PROGRAM IS DISTRIBUTED IN THE HOPE THAT IT WILL BE USEFUL, BUT
# WITHOUT ANY WARRANTY; WITHOUT EVEN THE IMPLIED WARRANTY OF
# MERCHANTABILITY OR FITNESS FOR A PARTICULAR PURPOSE. SEE THE GNU
# GENERAL PUBLIC LICENSE FOR MORE DETAILS.
#
# YOU SHOULD HAVE RECEIVED A COPY OF THE GNU GENERAL PUBLIC LICENSE
# ALONG WITH THIS PROGRAM; IF NOT, WRITE TO EDF R&D CODE_ASTER,
#    1 AVENUE DU GENERAL DE GAULLE, 92141 CLAMART CEDEX, FRANCE.
# ======================================================================
#

DEBUT(  CODE=_F(NIV_PUB_WEB='INTERNET'))

#
# LECTURE DU MAILLAGE ----------------------------------------------
#

MAILL=LIRE_MAILLAGE(FORMAT='MED',  )

MAILL=DEFI_GROUP( reuse=MAILL,   MAILLAGE=MAILL,
  CREA_GROUP_MA=_F(  NOM = 'TOUT', TOUT = 'OUI'))

#
# DEFINITION DES CHARGEMENTS ET DU MATERIAU ------------------------
#

TIMP_100=DEFI_CONSTANTE( VALE=100.0)

TIMP_0=DEFI_CONSTANTE(   VALE=0.0)

MATE=DEFI_MATERIAU( THER=_F( RHO_CP = 1.0, LAMBDA = 1.))

#
# AFFECTATIONS: MATERIAU  MODELE  CHARGEMENT ----------------------
#

MODEL=AFFE_MODELE(
                  MAILLAGE=MAILL,
                     AFFE=_F( TOUT = 'OUI',  PHENOMENE = 'THERMIQUE',
                                       MODELISATION = 'COQUE'))

CHMATE=AFFE_MATERIAU(   MAILLAGE=MAILL,
                    AFFE=_F( TOUT = 'OUI',  MATER = MATE))

CHARGE=AFFE_CHAR_THER_F(
                      MODELE=MODEL,TEMP_IMPO=(
                  _F( GROUP_NO = 'NOE_IMP',  TEMP_SUP = TIMP_100,
                                 TEMP_MIL= TIMP_100, TEMP_INF = TIMP_100),
                  _F( GROUP_NO = 'NOE_GD',   TEMP_SUP = TIMP_0,
                                 TEMP_MIL= TIMP_0,   TEMP_INF = TIMP_0))

                  )

EPAIS=AFFE_CARA_ELEM( MODELE=MODEL,
                             COQUE=_F( GROUP_MA = 'TOUT',
                                       EPAIS = 0.005) )

#
# RESOLUTION ------------------------------------------------------
#


TEMP=THER_LINEAIRE(
                      MODELE=MODEL,
                  CHAM_MATER=CHMATE,    CARA_ELEM=EPAIS,
                      EXCIT=_F(  CHARGE = CHARGE) )

#
# ANALYSE DES RESULTATS -------------------------------------------
#
TPR=CREA_CHAMP(  OPERATION='EXTR', TYPE_CHAM='NOEU_TEMP_R',
NOM_CHAM='TEMP', RESULTAT=TEMP, NUME_ORDRE=0)

#

TEST_RESU(CHAM_NO=(_F(NOEUD='N21',
                      NOM_CMP='TEMP_SUP',
                      PRECISION=1.E-2,
                      CHAM_GD=TPR,
                      VALE_CALC=43.499027712,
                      VALE_REFE=43.496000000000002,
                      REFERENCE='NON_DEFINI',),
                   _F(NOEUD='N21',
                      NOM_CMP='TEMP_MIL',
                      PRECISION=1.E-2,
                      CHAM_GD=TPR,
                      VALE_CALC=43.499027712,
                      VALE_REFE=43.496000000000002,
                      REFERENCE='NON_DEFINI',),
                   _F(NOEUD='N21',
                      NOM_CMP='TEMP_INF',
                      PRECISION=1.E-2,
                      CHAM_GD=TPR,
                      VALE_CALC=43.499027712,
                      VALE_REFE=43.496000000000002,
                      REFERENCE='NON_DEFINI',),
                   _F(NOEUD='N39',
                      NOM_CMP='TEMP_SUP',
                      PRECISION=1.E-2,
                      CHAM_GD=TPR,
                      VALE_CALC=18.956748264,
                      VALE_REFE=18.978000000000002,
                      REFERENCE='NON_DEFINI',),
                   _F(NOEUD='N39',
                      NOM_CMP='TEMP_MIL',
                      PRECISION=1.E-2,
                      CHAM_GD=TPR,
                      VALE_CALC=18.956748264,
                      VALE_REFE=18.978000000000002,
                      REFERENCE='NON_DEFINI',),
                   _F(NOEUD='N39',
                      NOM_CMP='TEMP_INF',
                      PRECISION=1.E-2,
                      CHAM_GD=TPR,
                      VALE_CALC=18.956748264,
                      VALE_REFE=18.978000000000002,
                      REFERENCE='NON_DEFINI',),
                   _F(NOEUD='N57',
                      NOM_CMP='TEMP_SUP',
                      PRECISION=1.E-2,
                      CHAM_GD=TPR,
                      VALE_CALC=8.554098778,
                      VALE_REFE=8.5589999999999993,
                      REFERENCE='NON_DEFINI',),
                   _F(NOEUD='N57',
                      NOM_CMP='TEMP_MIL',
                      PRECISION=1.E-2,
                      CHAM_GD=TPR,
                      VALE_CALC=8.554098778,
                      VALE_REFE=8.5589999999999993,
                      REFERENCE='NON_DEFINI',),
                   _F(NOEUD='N57',
                      NOM_CMP='TEMP_INF',
                      PRECISION=1.E-2,
                      CHAM_GD=TPR,
                      VALE_CALC=8.554098778,
                      VALE_REFE=8.5589999999999993,
                      REFERENCE='NON_DEFINI',),
                   _F(NOEUD='N23',
                      NOM_CMP='TEMP_SUP',
                      PRECISION=1.E-2,
                      CHAM_GD=TPR,
                      VALE_CALC=54.514451793,
                      VALE_REFE=54.466999999999999,
                      REFERENCE='NON_DEFINI',),
                   _F(NOEUD='N23',
                      NOM_CMP='TEMP_MIL',
                      PRECISION=1.E-2,
                      CHAM_GD=TPR,
                      VALE_CALC=54.514451793,
                      VALE_REFE=54.466999999999999,
                      REFERENCE='NON_DEFINI',),
                   _F(NOEUD='N23',
                      NOM_CMP='TEMP_INF',
                      PRECISION=1.E-2,
                      CHAM_GD=TPR,
                      VALE_CALC=54.514451793,
                      VALE_REFE=54.466999999999999,
                      REFERENCE='NON_DEFINI',),
                   _F(NOEUD='N41',
                      NOM_CMP='TEMP_SUP',
                      PRECISION=1.E-2,
                      CHAM_GD=TPR,
                      VALE_CALC=26.095840634,
                      VALE_REFE=26.096,
                      REFERENCE='NON_DEFINI',),
                   _F(NOEUD='N41',
                      NOM_CMP='TEMP_MIL',
                      PRECISION=1.E-2,
                      CHAM_GD=TPR,
                      VALE_CALC=26.095840634,
                      VALE_REFE=26.096,
                      REFERENCE='NON_DEFINI',),
                   _F(NOEUD='N41',
                      NOM_CMP='TEMP_INF',
                      PRECISION=1.E-2,
                      CHAM_GD=TPR,
                      VALE_CALC=26.095840634,
                      VALE_REFE=26.096,
                      REFERENCE='NON_DEFINI',),
                   _F(NOEUD='N59',
                      NOM_CMP='TEMP_SUP',
                      PRECISION=1.E-2,
                      CHAM_GD=TPR,
                      VALE_CALC=12.024713548,
                      VALE_REFE=12.032,
                      REFERENCE='NON_DEFINI',),
                   _F(NOEUD='N59',
                      NOM_CMP='TEMP_MIL',
                      PRECISION=1.E-2,
                      CHAM_GD=TPR,
                      VALE_CALC=12.024713548,
                      VALE_REFE=12.032,
                      REFERENCE='NON_DEFINI',),
                   _F(NOEUD='N59',
                      NOM_CMP='TEMP_INF',
                      PRECISION=1.E-2,
                      CHAM_GD=TPR,
                      VALE_CALC=12.024713548,
                      VALE_REFE=12.032,
                      REFERENCE='NON_DEFINI',),
                   _F(NOEUD='N77',
                      NOM_CMP='TEMP_SUP',
                      PRECISION=1.E-2,
                      CHAM_GD=TPR,
                      VALE_CALC=5.495548179,
                      VALE_REFE=5.4989999999999997,
                      REFERENCE='NON_DEFINI',),
                   _F(NOEUD='N77',
                      NOM_CMP='TEMP_MIL',
                      PRECISION=1.E-2,
                      CHAM_GD=TPR,
                      VALE_CALC=5.495548179,
                      VALE_REFE=5.4989999999999997,
                      REFERENCE='NON_DEFINI',),
                   _F(NOEUD='N77',
                      NOM_CMP='TEMP_INF',
                      PRECISION=1.E-2,
                      CHAM_GD=TPR,
                      VALE_CALC=5.495548179,
                      VALE_REFE=5.4989999999999997,
                      REFERENCE='NON_DEFINI',),
                   ),
          )

FIN()
#
