# person_in_charge: sam.cuvilliez at edf.fr
# ======================================================================
# COPYRIGHT (C) 1991 - 2016  EDF R&D                  WWW.CODE-ASTER.ORG
# THIS PROGRAM IS FREE SOFTWARE; YOU CAN REDISTRIBUTE IT AND/OR MODIFY  
# IT UNDER THE TERMS OF THE GNU GENERAL PUBLIC LICENSE AS PUBLISHED BY  
# THE FREE SOFTWARE FOUNDATION; EITHER VERSION 2 OF THE LICENSE, OR     
# (AT YOUR OPTION) ANY LATER VERSION.                                                    
#                                                                       
# THIS PROGRAM IS DISTRIBUTED IN THE HOPE THAT IT WILL BE USEFUL, BUT   
# WITHOUT ANY WARRANTY; WITHOUT EVEN THE IMPLIED WARRANTY OF            
# MERCHANTABILITY OR FITNESS FOR A PARTICULAR PURPOSE. SEE THE GNU      
# GENERAL PUBLIC LICENSE FOR MORE DETAILS.                              
#                                                                       
# YOU SHOULD HAVE RECEIVED A COPY OF THE GNU GENERAL PUBLIC LICENSE     
# ALONG WITH THIS PROGRAM; IF NOT, WRITE TO EDF R&D CODE_ASTER,         
#    1 AVENUE DU GENERAL DE GAULLE, 92141 CLAMART CEDEX, FRANCE.        
# ======================================================================

DEBUT(CODE=_F(NIV_PUB_WEB='INTERNET'),DEBUG=_F(SDVERI='OUI'))

#----------------------------------------------
#            MAILLAGE
#----------------------------------------------

MAILLAG1=LIRE_MAILLAGE(INFO=1,FORMAT='MED',);

# longueur du barreau
LZ = 5.

MAILLAG1=DEFI_GROUP(reuse =MAILLAG1,
                    MAILLAGE=MAILLAG1,
                    CREA_GROUP_MA=_F(NOM='VOL',GROUP_MA='G_3D_29',),
                    CREA_GROUP_NO=(
#                                  GROUPES SUR LESQUELS ON VA IMPOSER LES DIRICHLETS
                                   _F(NOM = 'SURFSUP',
                                      OPTION = 'PLAN',
                                      POINT = (0.,0.,0.5*LZ,),
                                      VECT_NORMALE = (0.,0.,1.,),
                                      PRECISION = 0.1*LZ,),
                                   _F(NOM = 'SURFINF',
                                      OPTION = 'PLAN',
                                      POINT = (0.,0.,-0.5*LZ,),
                                      VECT_NORMALE = (0.,0.,1.,),
                                      PRECISION = 0.1*LZ,),
#                                 GROUPES SUR LESQUELS ON VA TESTER LES VALEURS DE T
                                   _F(NOM = 'NOXHSUP',
                                      OPTION = 'PLAN',
                                      POINT = (0.,0.,0.5*LZ/5.,),
                                      VECT_NORMALE = (0.,0.,1.,),
                                      PRECISION = 0.1*LZ,),
                                   _F(NOM = 'NOXHINF',
                                      OPTION = 'PLAN',
                                      POINT = (0.,0.,-0.5*LZ/5.,),
                                      VECT_NORMALE = (0.,0.,1.,),
                                      PRECISION = 0.1*LZ,),
                                   ),
                    );

#----------------------------------------------
#            MODELE ET FISSURE (INTERFACE)
#----------------------------------------------

MODELEIN=AFFE_MODELE(MAILLAGE=MAILLAG1,
                     AFFE=_F(TOUT='OUI',
                             PHENOMENE='THERMIQUE',
                             MODELISATION='3D',),);

LN1=FORMULE(NOM_PARA=('X','Y','Z'),VALE='Z');

FISS1=DEFI_FISS_XFEM(MAILLAGE=MAILLAG1,
                     TYPE_DISCONTINUITE='INTERFACE',
                     DEFI_FISS=_F(FONC_LN=LN1),
                    INFO=1,);

MODELEX=MODI_MODELE_XFEM(MODELE_IN=MODELEIN,
                         FISSURE=FISS1,
                         INFO=1,);
 
#----------------------------------------------
#            MATERIAU
#----------------------------------------------

MATE=DEFI_MATERIAU(THER=_F(LAMBDA=1.0,RHO_CP = 2.0))

CHMAT=AFFE_MATERIAU(MAILLAGE=MAILLAG1,
                    MODELE=MODELEX,
                    AFFE=_F(TOUT='OUI',MATER=MATE,),)


#----------------------------------------------
#            CHARGEMENT THERMIQUE
#----------------------------------------------

CHTH=AFFE_CHAR_THER(MODELE=MODELEX,
                    TEMP_IMPO=(
                             _F(GROUP_NO = 'SURFSUP',TEMP = 20.),
                             _F(GROUP_NO = 'SURFINF',TEMP = 10.),
                             ))

#----------------------------------------------
#            CALCUL THERMIQUE LINEAIRE STATIONNAIRE
#----------------------------------------------

TEMPE=THER_LINEAIRE(MODELE=MODELEX,
                    CHAM_MATER=CHMAT,
                    EXCIT=_F(CHARGE=CHTH),)

#----------------------------------------------
#            POST-TRAITEMENTS
#----------------------------------------------


MA_VISU=POST_MAIL_XFEM(MODELE=MODELEX)

MA_VISU=DEFI_GROUP(reuse =MA_VISU,
                   MAILLAGE=MA_VISU,
                   CREA_GROUP_NO=(
#                                 GROUPES SUR LESQUELS ON VA TESTER LES VALEURS DE T
                                  _F(NOM = 'NOCSUP',
                                     OPTION = 'PLAN',
                                     POINT = (0.,0.,0.5*LZ/5.,),
                                     VECT_NORMALE = (0.,0.,1.,),
                                     PRECISION = 1.e-2*LZ,),
                                  _F(NOM = 'NOCINF',
                                     OPTION = 'PLAN',
                                     POINT = (0.,0.,-0.5*LZ/5.,),
                                     VECT_NORMALE = (0.,0.,1.,),
                                     PRECISION = 1.e-2*LZ,),
                                  ),
                   )

MOD_VISU=AFFE_MODELE(MAILLAGE=MA_VISU,
                     AFFE=_F(TOUT='OUI',
                             PHENOMENE='THERMIQUE',
                             MODELISATION='3D',),)

RES_VISU=POST_CHAM_XFEM(MODELE_VISU   = MOD_VISU,
                        RESULTAT      = TEMPE)

#----------------------------------------------
#            RELEVES
#----------------------------------------------

# RELEVES SUR LE RESULTAT XFEM

TEMXSUP=POST_RELEVE_T(ACTION=_F(INTITULE='TEMPE',
                                GROUP_NO='NOXHSUP',
                                RESULTAT=TEMPE,
                                NOM_CHAM='TEMP',
                                TOUT_CMP='OUI',
                                OPERATION='EXTRACTION',),)

TEMXINF=POST_RELEVE_T(ACTION=_F(INTITULE='TEMPE',
                                GROUP_NO='NOXHINF',
                                RESULTAT=TEMPE,
                                NOM_CHAM='TEMP',
                                TOUT_CMP='OUI',
                                OPERATION='EXTRACTION',),)

# RELEVES SUR LE RESULTAT VISU

TEMCSUP=POST_RELEVE_T(ACTION=_F(INTITULE='TEMPE',
                                GROUP_NO='NOCSUP',
                                RESULTAT=RES_VISU,
                                NOM_CHAM='TEMP',
                                TOUT_CMP='OUI',
                                OPERATION='EXTRACTION',),)

TEMCINF=POST_RELEVE_T(ACTION=_F(INTITULE='TEMPE',
                                GROUP_NO='NOCINF',
                                RESULTAT=RES_VISU,
                                NOM_CHAM='TEMP',
                                TOUT_CMP='OUI',
                                OPERATION='EXTRACTION',),)

#----------------------------------------------
#            TESTS
#----------------------------------------------

# TESTS SUR LE RESULTAT XFEM

TEST_TABLE(REFERENCE='ANALYTIQUE',
           VALE_CALC=20.,
           VALE_REFE=20.,
           NOM_PARA='TEMP',
           TYPE_TEST='MAX',
           TABLE=TEMXSUP,)

TEST_TABLE(REFERENCE='ANALYTIQUE',
           VALE_CALC=5.,
           VALE_REFE=5.,
           NOM_PARA='H1',
           TYPE_TEST='MAX',
           TABLE=TEMXSUP,)

TEST_TABLE(REFERENCE='ANALYTIQUE',
           VALE_CALC=10.,
           VALE_REFE=10.,
           NOM_PARA='TEMP',
           TYPE_TEST='MAX',
           TABLE=TEMXINF,)

TEST_TABLE(REFERENCE='ANALYTIQUE',
           VALE_CALC=5.,
           VALE_REFE=5.,
           NOM_PARA='H1',
           TYPE_TEST='MAX',
           TABLE=TEMXINF,)

# -- 

TEST_TABLE(REFERENCE='ANALYTIQUE',
           VALE_CALC=20.,
           VALE_REFE=20.,
           NOM_PARA='TEMP',
           TYPE_TEST='MIN',
           TABLE=TEMXSUP,)

TEST_TABLE(REFERENCE='ANALYTIQUE',
           VALE_CALC=5.,
           VALE_REFE=5.,
           NOM_PARA='H1',
           TYPE_TEST='MIN',
           TABLE=TEMXSUP,)

TEST_TABLE(REFERENCE='ANALYTIQUE',
           VALE_CALC=10.,
           VALE_REFE=10.,
           NOM_PARA='TEMP',
           TYPE_TEST='MIN',
           TABLE=TEMXINF,)

TEST_TABLE(REFERENCE='ANALYTIQUE',
           VALE_CALC=5.,
           VALE_REFE=5.,
           NOM_PARA='H1',
           TYPE_TEST='MIN',
           TABLE=TEMXINF,)


# TESTS SUR LE RESULTAT VISU

TEST_TABLE(REFERENCE='ANALYTIQUE',
           VALE_CALC=20.,
           VALE_REFE=20.,
           NOM_PARA='TEMP',
           TYPE_TEST='MAX',
           TABLE=TEMCSUP,)

TEST_TABLE(REFERENCE='ANALYTIQUE',
           VALE_CALC=10.,
           VALE_REFE=10.,
           NOM_PARA='TEMP',
           TYPE_TEST='MAX',
           TABLE=TEMCINF,)

# -- 

TEST_TABLE(REFERENCE='ANALYTIQUE',
           VALE_CALC=20.,
           VALE_REFE=20.,
           NOM_PARA='TEMP',
           TYPE_TEST='MIN',
           TABLE=TEMCSUP,)

TEST_TABLE(REFERENCE='ANALYTIQUE',
           VALE_CALC=10.,
           VALE_REFE=10.,
           NOM_PARA='TEMP',
           TYPE_TEST='MIN',
           TABLE=TEMCINF,)

# TESTS SUR LE CHAMP 'TEMP_ELGA' DANS LE RESULTAT XFEM

# # POUR AFFICHER AU FORMAT TEXTE LE CHAMP TEMP_ELGA
# CHTELGA=CREA_CHAMP(TYPE_CHAM = 'ELGA_TEMP_R',
#                    OPERATION = 'EXTR',
#                    RESULTAT  =  TEMPE,
#                    NOM_CHAM  = 'TEMP_ELGA',
#                    NUME_ORDRE = 0,
#                    INFO = 2)

TEST_RESU(RESU=(
                _F(RESULTAT=TEMPE,
                   NOM_CHAM='TEMP_ELGA',
                   NOM_CMP='TEMP',
                   NUME_ORDRE = 0,
                   MAILLE='M7',
                   POINT=1,
                   REFERENCE = 'ANALYTIQUE' ,
                   VALE_REFE=10.,
                   VALE_CALC=10.,),
                _F(RESULTAT=TEMPE,
                   NOM_CHAM='TEMP_ELGA',
                   NOM_CMP='TEMP',
                   NUME_ORDRE = 0,
                   MAILLE='M24',
                   POINT=1,
                   REFERENCE = 'ANALYTIQUE' ,
                   VALE_REFE=20.,
                   VALE_CALC=20.,),
                ),
          )

IMPR_TABLE(TABLE=TEMXSUP)
IMPR_TABLE(TABLE=TEMXINF)

IMPR_TABLE(TABLE=TEMCSUP)
IMPR_TABLE(TABLE=TEMCINF)

IMPR_RESU(FORMAT='MED',UNITE=80,RESU=_F(RESULTAT=RES_VISU))
IMPR_RESU(FORMAT='MED',UNITE=81,RESU=_F(MAILLAGE=MA_VISU))

FIN();
