# MODIF  DATE 13/12/2011   AUTEUR PELLET J.PELLET 
# TITRE DISTRIBUTION DE LA TEMPERATURE DANS SECTION D'UNE CHEMINEE
#            CONFIGURATION MANAGEMENT OF EDF VERSION
# ======================================================================
# COPYRIGHT (C) 1991 - 2011  EDF R&D                  WWW.CODE-ASTER.ORG
# THIS PROGRAM IS FREE SOFTWARE; YOU CAN REDISTRIBUTE IT AND/OR MODIFY
# IT UNDER THE TERMS OF THE GNU GENERAL PUBLIC LICENSE AS PUBLISHED BY
# THE FREE SOFTWARE FOUNDATION; EITHER VERSION 2 OF THE LICENSE, OR   
# (AT YOUR OPTION) ANY LATER VERSION.                                 
#
# THIS PROGRAM IS DISTRIBUTED IN THE HOPE THAT IT WILL BE USEFUL, BUT 
# WITHOUT ANY WARRANTY; WITHOUT EVEN THE IMPLIED WARRANTY OF          
# MERCHANTABILITY OR FITNESS FOR A PARTICULAR PURPOSE. SEE THE GNU    
# GENERAL PUBLIC LICENSE FOR MORE DETAILS.                            
#
# YOU SHOULD HAVE RECEIVED A COPY OF THE GNU GENERAL PUBLIC LICENSE   
# ALONG WITH THIS PROGRAM; IF NOT, WRITE TO EDF R&D CODE_ASTER,       
#    1 AVENUE DU GENERAL DE GAULLE, 92141 CLAMART CEDEX, FRANCE.      
# ======================================================================
#
# MAILLES : QUAD4
#
# LES CALCULS SONT EFFECTUES EN DEGRE F ET EN FEET
#

DEBUT(  CODE=_F( NOM = 'TPLP303D',NIV_PUB_WEB='INTERNET') )

#
# LECTURE DU MAILLAGE ----------------------------------------------
#

MAIL=LIRE_MAILLAGE()

#
# DEFINITION DES CHARGEMENTS ET DU MATERIAU ------------------------
#


MATE=DEFI_MATERIAU(  THER=_F(  RHO_CP = 1.0, LAMBDA = 1.0) )

#
# AFFECTATIONS: MATERIAU  MODELE  CHARGEMENT ----------------------
#


CHMAT=AFFE_MATERIAU(    MAILLAGE=MAIL,
                           AFFE=_F(  TOUT = 'OUI',  MATER = MATE)
                        )

MOTH=AFFE_MODELE(   MAILLAGE=MAIL,
                       AFFE=_F( TOUT = 'OUI', MODELISATION = 'PLAN',
                                        PHENOMENE = 'THERMIQUE')
                     )

CHTH=AFFE_CHAR_THER(   MODELE=MOTH,ECHANGE=(
                           _F(  GROUP_MA = 'CONV_INT',
                                       COEF_H = 12.E0,
                                     TEMP_EXT = 100.E0),
                           _F(  GROUP_MA = 'CONV_EXT',
                                       COEF_H = 3.E0,
                                     TEMP_EXT = 0.E0))
                        )

#
# RESOLUTION -----------------------------------------------------------
#


TEMPE=THER_LINEAIRE(   MODELE=MOTH,
                            CHAM_MATER=CHMAT,
                            EXCIT=_F(  CHARGE = CHTH)
                         )

#
# ANALYSE DES RESULTATS ------------------------------------------------
#
TEMP=CREA_CHAMP(  OPERATION='EXTR', TYPE_CHAM='NOEU_TEMP_R',
NOM_CHAM='TEMP', RESULTAT=TEMPE, NUME_ORDRE=0 )

TEST_RESU(CHAM_NO=(
   
#
_F( CHAM_GD = TEMP, NOEUD = 'N7',  NOM_CMP = 'TEMP', VALE = 93.7,   PRECISION = 1.E-2),
_F( CHAM_GD = TEMP, NOEUD = 'N7',  NOM_CMP = 'TEMP', VALE = 93.7,   PRECISION = 1.E0,
                                                CRITERE = 'ABSOLU'),
_F( CHAM_GD = TEMP, NOEUD = 'N4',  NOM_CMP = 'TEMP', VALE = 93.2,   PRECISION = 2.E-2),
_F( CHAM_GD = TEMP, NOEUD = 'N4',  NOM_CMP = 'TEMP', VALE = 93.2,   PRECISION = 2.E0,
                                                CRITERE = 'ABSOLU'),
_F( CHAM_GD = TEMP, NOEUD = 'N1',  NOM_CMP = 'TEMP', VALE = 87.6,   PRECISION = 3.E-2),
_F( CHAM_GD = TEMP, NOEUD = 'N1',  NOM_CMP = 'TEMP', VALE = 87.6,   PRECISION = 2.E0,
                                                CRITERE = 'ABSOLU'),
_F( CHAM_GD = TEMP, NOEUD = 'N10', NOM_CMP = 'TEMP', VALE = 56.3,   PRECISION = 2.E-2),
_F( CHAM_GD = TEMP, NOEUD = 'N10', NOM_CMP = 'TEMP', VALE = 56.3,   PRECISION = 1.E0,
                                                CRITERE = 'ABSOLU'),
_F( CHAM_GD = TEMP, NOEUD = 'N8',  NOM_CMP = 'TEMP', VALE = 54.6,   PRECISION = 1.E-2),
_F( CHAM_GD = TEMP, NOEUD = 'N8',  NOM_CMP = 'TEMP', VALE = 54.6,   PRECISION = 1.E0,
                                                CRITERE = 'ABSOLU'),
_F( CHAM_GD = TEMP, NOEUD = 'N5',  NOM_CMP = 'TEMP', VALE = 47.5,   PRECISION = 1.E-2),
_F( CHAM_GD = TEMP, NOEUD = 'N5',  NOM_CMP = 'TEMP', VALE = 47.5,   PRECISION = 1.E0,
                                                CRITERE = 'ABSOLU'),
_F( CHAM_GD = TEMP, NOEUD = 'N2',  NOM_CMP = 'TEMP', VALE = 29.6,   PRECISION = 8.E-2),
_F( CHAM_GD = TEMP, NOEUD = 'N2',  NOM_CMP = 'TEMP', VALE = 29.6,   PRECISION = 3.E0,
                                                CRITERE = 'ABSOLU'),
_F( CHAM_GD = TEMP, NOEUD = 'N12', NOM_CMP = 'TEMP', VALE = 22.2,   PRECISION = 1.E-2),
_F( CHAM_GD = TEMP, NOEUD = 'N12', NOM_CMP = 'TEMP', VALE = 22.2,   PRECISION = 1.E0,
                                                CRITERE = 'ABSOLU'),
_F( CHAM_GD = TEMP, NOEUD = 'N11', NOM_CMP = 'TEMP', VALE = 21.4,   PRECISION = 1.E-2),
_F( CHAM_GD = TEMP, NOEUD = 'N11', NOM_CMP = 'TEMP', VALE = 21.4,   PRECISION = 1.E0,
                                                CRITERE = 'ABSOLU'),
_F( CHAM_GD = TEMP, NOEUD = 'N9',  NOM_CMP = 'TEMP', VALE = 18.3,   PRECISION = 6.E-2),
_F( CHAM_GD = TEMP, NOEUD = 'N9',  NOM_CMP = 'TEMP', VALE = 18.3,   PRECISION = 1.E0,
                                                CRITERE = 'ABSOLU'),
_F( CHAM_GD = TEMP, NOEUD = 'N6',  NOM_CMP = 'TEMP', VALE = 11.7,   PRECISION = 8.E-2),
_F( CHAM_GD = TEMP, NOEUD = 'N6',  NOM_CMP = 'TEMP', VALE = 11.7,   PRECISION = 1.E0,
                                                CRITERE = 'ABSOLU'),
_F( CHAM_GD = TEMP, NOEUD = 'N3',  NOM_CMP = 'TEMP', VALE = 4.7,   PRECISION = 34.E-2),
_F( CHAM_GD = TEMP, NOEUD = 'N3',  NOM_CMP = 'TEMP', VALE = 4.7,   PRECISION = 2.E0,
                                                CRITERE = 'ABSOLU'))
)

FIN()
#
#
