# MODIF  DATE 12/05/2009   AUTEUR PELLET J.PELLET 
# TITRE DISTRIBUTION DE LA TEMPERATURE DANS SECTION D'UNE CHEMINEE
# tplp303f.para = tps_job 60 mem_job 64Mo ncpus 1 liste_test S
#            CONFIGURATION MANAGEMENT OF EDF VERSION
# ======================================================================
# COPYRIGHT (C) 1991 - 2001  EDF R&D                  WWW.CODE-ASTER.ORG
# THIS PROGRAM IS FREE SOFTWARE; YOU CAN REDISTRIBUTE IT AND/OR MODIFY
# IT UNDER THE TERMS OF THE GNU GENERAL PUBLIC LICENSE AS PUBLISHED BY
# THE FREE SOFTWARE FOUNDATION; EITHER VERSION 2 OF THE LICENSE, OR
# (AT YOUR OPTION) ANY LATER VERSION.
#
# THIS PROGRAM IS DISTRIBUTED IN THE HOPE THAT IT WILL BE USEFUL, BUT
# WITHOUT ANY WARRANTY; WITHOUT EVEN THE IMPLIED WARRANTY OF
# MERCHANTABILITY OR FITNESS FOR A PARTICULAR PURPOSE. SEE THE GNU
# GENERAL PUBLIC LICENSE FOR MORE DETAILS.
#
# YOU SHOULD HAVE RECEIVED A COPY OF THE GNU GENERAL PUBLIC LICENSE
# ALONG WITH THIS PROGRAM; IF NOT, WRITE TO EDF R&D CODE_ASTER,
#    1 AVENUE DU GENERAL DE GAULLE, 92141 CLAMART CEDEX, FRANCE.
# ======================================================================
#
# MAILLES : QUAD4
# UNITES ANGLAISES + SYMETRIE X=Y + QUE DES Q4 !
#

DEBUT(  CODE=_F( NOM = 'TPLP303F',NIV_PUB_WEB='INTERNET'),DEBUG=_F(SDVERI='OUI'))

#
# LECTURE DU MAILLAGE ----------------------------------------------
#

MAIL=LIRE_MAILLAGE()

#
# DEFINITION DES CHARGEMENTS ET DU MATERIAU ------------------------
#


MATE=DEFI_MATERIAU(  THER=_F(  RHO_CP = 1.0, LAMBDA = 1.0) )

#
# AFFECTATIONS: MATERIAU  MODELE  CHARGEMENT ----------------------
#


CHMAT=AFFE_MATERIAU(    MAILLAGE=MAIL,
                           AFFE=_F(  TOUT = 'OUI',  MATER = MATE)
                        )

MOTH=AFFE_MODELE(   MAILLAGE=MAIL,
                       AFFE=_F( TOUT = 'OUI', MODELISATION = 'PLAN',
                                        PHENOMENE = 'THERMIQUE')
                     )

CHTH=AFFE_CHAR_THER(   MODELE=MOTH,ECHANGE=(
                           _F(  GROUP_MA = 'CONV_INT',
                                       COEF_H = 12.000E0,
                                     TEMP_EXT = 100.00E0),
                           _F(  GROUP_MA = 'CONV_EXT',
                                       COEF_H = 3.000E0,
                                     TEMP_EXT = 0.00E0))
                        )

#
# RESOLUTION -----------------------------------------------------------
#


TEMPE=THER_LINEAIRE(       MODELE=MOTH,
                            CHAM_MATER=CHMAT,
                                 EXCIT=_F(  CHARGE = CHTH),
                               SOLVEUR=_F( METHODE = 'LDLT', RENUM = 'RCMK')
                         )

#
# ANALYSE DES RESULTATS ------------------------------------------------
#
TEMP=CREA_CHAMP(  OPERATION='EXTR', TYPE_CHAM='NOEU_TEMP_R',
NOM_CHAM='TEMP', RESULTAT=TEMPE, NUME_ORDRE=0 )

TEST_RESU(CHAM_NO=(

#
_F( CHAM_GD = TEMP, NOEUD = 'N1',  NOM_CMP = 'TEMP', VALE = 93.700, PRECISION = 1.E-2),
_F( CHAM_GD = TEMP, NOEUD = 'N1',  NOM_CMP = 'TEMP', VALE = 93.700, PRECISION = 1.E0,
                                                CRITERE = 'ABSOLU'),
_F( CHAM_GD = TEMP, NOEUD = 'N4',  NOM_CMP = 'TEMP', VALE = 93.200, PRECISION = 2.E-2),
_F( CHAM_GD = TEMP, NOEUD = 'N4',  NOM_CMP = 'TEMP', VALE = 93.200, PRECISION = 1.E0,
                                                CRITERE = 'ABSOLU'),
_F( CHAM_GD = TEMP, NOEUD = 'N7',  NOM_CMP = 'TEMP', VALE = 87.600, PRECISION = 9.E-2),
_F( CHAM_GD = TEMP, NOEUD = 'N7',  NOM_CMP = 'TEMP', VALE = 87.600, PRECISION = 2.E0,
                                                CRITERE = 'ABSOLU'),
_F( CHAM_GD = TEMP, NOEUD = 'N2',  NOM_CMP = 'TEMP', VALE = 56.300, PRECISION = 2.E-2),
_F( CHAM_GD = TEMP, NOEUD = 'N2',  NOM_CMP = 'TEMP', VALE = 56.300, PRECISION = 1.E0,
                                                CRITERE = 'ABSOLU'),
_F( CHAM_GD = TEMP, NOEUD = 'N5',  NOM_CMP = 'TEMP', VALE = 54.600, PRECISION = 1.E-2),
_F( CHAM_GD = TEMP, NOEUD = 'N5',  NOM_CMP = 'TEMP', VALE = 54.600, PRECISION = 1.E0,
                                                CRITERE = 'ABSOLU'),
_F( CHAM_GD = TEMP, NOEUD = 'N8',  NOM_CMP = 'TEMP', VALE = 47.500, PRECISION = 6.E-2),
_F( CHAM_GD = TEMP, NOEUD = 'N8',  NOM_CMP = 'TEMP', VALE = 47.500, PRECISION = 3.E0,
                                                CRITERE = 'ABSOLU'),
_F( CHAM_GD = TEMP, NOEUD = 'N11', NOM_CMP = 'TEMP', VALE = 29.600, PRECISION = 2.E-2),
_F( CHAM_GD = TEMP, NOEUD = 'N11', NOM_CMP = 'TEMP', VALE = 29.600, PRECISION = 1.E0,
                                                CRITERE = 'ABSOLU'),
_F( CHAM_GD = TEMP, NOEUD = 'N3',  NOM_CMP = 'TEMP', VALE = 22.200, PRECISION = 1.E-2),
_F( CHAM_GD = TEMP, NOEUD = 'N3',  NOM_CMP = 'TEMP', VALE = 22.200, PRECISION = 1.E0,
                                                CRITERE = 'ABSOLU'),
_F( CHAM_GD = TEMP, NOEUD = 'N6',  NOM_CMP = 'TEMP', VALE = 21.400, PRECISION = 3.E-2),
_F( CHAM_GD = TEMP, NOEUD = 'N6',  NOM_CMP = 'TEMP', VALE = 21.400, PRECISION = 1.E0,
                                                CRITERE = 'ABSOLU'),
_F( CHAM_GD = TEMP, NOEUD = 'N9',  NOM_CMP = 'TEMP', VALE = 18.300, PRECISION = 6.E-2),
_F( CHAM_GD = TEMP, NOEUD = 'N9',  NOM_CMP = 'TEMP', VALE = 18.300, PRECISION = 1.E0,
                                                CRITERE = 'ABSOLU'),
_F( CHAM_GD = TEMP, NOEUD = 'N12', NOM_CMP = 'TEMP', VALE = 11.700, PRECISION = 2.E-2),
_F( CHAM_GD = TEMP, NOEUD = 'N12', NOM_CMP = 'TEMP', VALE = 11.700, PRECISION = 1.E0,
                                                CRITERE = 'ABSOLU'),
_F( CHAM_GD = TEMP, NOEUD = 'N15', NOM_CMP = 'TEMP', VALE = 4.700, PRECISION = 3.E-2),
_F( CHAM_GD = TEMP, NOEUD = 'N15', NOM_CMP = 'TEMP', VALE = 4.700, PRECISION = 1.E0,
                                                CRITERE = 'ABSOLU'))
  )

FIN()
#
#
