# TITRE PLAQUE AVEC TEMPERATURE IMPOSEE REPARTIE SINUSOIDALEMENT
# ======================================================================
# COPYRIGHT (C) 1991 - 2012  EDF R&D                  WWW.CODE-ASTER.ORG
# THIS PROGRAM IS FREE SOFTWARE; YOU CAN REDISTRIBUTE IT AND/OR MODIFY
# IT UNDER THE TERMS OF THE GNU GENERAL PUBLIC LICENSE AS PUBLISHED BY
# THE FREE SOFTWARE FOUNDATION; EITHER VERSION 2 OF THE LICENSE, OR   
# (AT YOUR OPTION) ANY LATER VERSION.                                 
#
# THIS PROGRAM IS DISTRIBUTED IN THE HOPE THAT IT WILL BE USEFUL, BUT 
# WITHOUT ANY WARRANTY; WITHOUT EVEN THE IMPLIED WARRANTY OF          
# MERCHANTABILITY OR FITNESS FOR A PARTICULAR PURPOSE. SEE THE GNU    
# GENERAL PUBLIC LICENSE FOR MORE DETAILS.                            
#
# YOU SHOULD HAVE RECEIVED A COPY OF THE GNU GENERAL PUBLIC LICENSE   
# ALONG WITH THIS PROGRAM; IF NOT, WRITE TO EDF R&D CODE_ASTER,       
#    1 AVENUE DU GENERAL DE GAULLE, 92141 CLAMART CEDEX, FRANCE.      
# ======================================================================
#

DEBUT(  CODE=_F( NOM = 'TPLP301B',NIV_PUB_WEB='INTERNET'))

#
# LECTURE DU MAILLAGE ----------------------------------------------
#

MAILL=LIRE_MAILLAGE(FORMAT='MED', )

#
# DEFINITION DES CHARGEMENTS ET DU MATERIAU ------------------------
#


MATER=DEFI_MATERIAU(    THER=_F(  RHO_CP = 1.0,
                                    LAMBDA = 1.)
                         )

#
# AFFECTATIONS: MATERIAU  MODELE  CHARGEMENT -----------------------
#

MODEL=AFFE_MODELE(    MAILLAGE=MAILL,
                           AFFE=_F(  TOUT = 'OUI',
                                  PHENOMENE = 'THERMIQUE',
                                  MODELISATION = 'PLAN')
                       )

CHMATE=AFFE_MATERIAU(    MAILLAGE=MAILL,
                              AFFE=_F(  TOUT = 'OUI',  MATER = MATER)
                          )

CHARGE=AFFE_CHAR_THER( 
                       MODELE=MODEL,TEMP_IMPO=(
                    _F(  GROUP_NO = 'NOEU_AD',  TEMP = 0.),
                    _F(  GROUP_NO = 'NOEU_DJ',  TEMP = 0.),
                    _F(  NOEUD = 'N1',          TEMP = 0.),
                    _F(  NOEUD = 'N18',         TEMP = 0.1951),
                    _F(  NOEUD = 'N35',         TEMP = 0.3827),
                    _F(  NOEUD = 'N52',         TEMP = 0.5556),
                    _F(  NOEUD = 'N69',         TEMP = 0.7071),
                    _F(  NOEUD = 'N86',         TEMP = 0.8315),
                    _F(  NOEUD = 'N103',        TEMP = 0.9239),
                    _F(  NOEUD = 'N120',        TEMP = 0.9808),
                    _F(  NOEUD = 'N137',        TEMP = 1.))
                           )

#
# RESOLUTION ------------------------------------------------------
#


TEMP=THER_LINEAIRE( 
                      MODELE=MODEL,
                  CHAM_MATER=CHMATE,
                       EXCIT=_F(  CHARGE = CHARGE)
                         )

#
# ANALYSE DES RESULTATS -------------------------------------------
#
TPR=CREA_CHAMP(  OPERATION='EXTR', TYPE_CHAM='NOEU_TEMP_R',
NOM_CHAM='TEMP', RESULTAT=TEMP, NUME_ORDRE=0)

#

TEST_RESU(CHAM_NO=(_F(NOEUD='N1',
                      CRITERE='ABSOLU',
                      NOM_CMP='TEMP',
                      PRECISION=1.E-2,
                      CHAM_GD=TPR,
                      VALE_CALC= 0.00000000E+00,
                      VALE_REFE=0.0,
                      REFERENCE='ANALYTIQUE',),
                   _F(NOEUD='N18',
                      NOM_CMP='TEMP',
                      PRECISION=1.E-2,
                      CHAM_GD=TPR,
                      VALE_CALC=0.195100000,
                      VALE_REFE=0.1951,
                      REFERENCE='ANALYTIQUE',),
                   _F(NOEUD='N35',
                      NOM_CMP='TEMP',
                      PRECISION=1.E-2,
                      CHAM_GD=TPR,
                      VALE_CALC=0.382700000,
                      VALE_REFE=0.38269999999999998,
                      REFERENCE='ANALYTIQUE',),
                   _F(NOEUD='N52',
                      NOM_CMP='TEMP',
                      PRECISION=1.E-2,
                      CHAM_GD=TPR,
                      VALE_CALC=0.555600000,
                      VALE_REFE=0.55559999999999998,
                      REFERENCE='ANALYTIQUE',),
                   _F(NOEUD='N69',
                      NOM_CMP='TEMP',
                      PRECISION=1.E-2,
                      CHAM_GD=TPR,
                      VALE_CALC=0.707100000,
                      VALE_REFE=0.70709999999999995,
                      REFERENCE='ANALYTIQUE',),
                   _F(NOEUD='N86',
                      NOM_CMP='TEMP',
                      PRECISION=1.E-2,
                      CHAM_GD=TPR,
                      VALE_CALC=0.831500000,
                      VALE_REFE=0.83150000000000002,
                      REFERENCE='ANALYTIQUE',),
                   _F(NOEUD='N103',
                      NOM_CMP='TEMP',
                      PRECISION=1.E-2,
                      CHAM_GD=TPR,
                      VALE_CALC=0.923900000,
                      VALE_REFE=0.92390000000000005,
                      REFERENCE='ANALYTIQUE',),
                   _F(NOEUD='N120',
                      NOM_CMP='TEMP',
                      PRECISION=1.E-2,
                      CHAM_GD=TPR,
                      VALE_CALC=0.980800000,
                      VALE_REFE=0.98080000000000001,
                      REFERENCE='ANALYTIQUE',),
                   _F(NOEUD='N137',
                      NOM_CMP='TEMP',
                      PRECISION=1.E-2,
                      CHAM_GD=TPR,
                      VALE_CALC=1.000000000,
                      VALE_REFE=1.0,
                      REFERENCE='ANALYTIQUE',),
                   _F(NOEUD='N141',
                      NOM_CMP='TEMP',
                      PRECISION=1.E-2,
                      CHAM_GD=TPR,
                      VALE_CALC=0.453788758,
                      VALE_REFE=0.45268999999999998,
                      REFERENCE='ANALYTIQUE',),
                   _F(NOEUD='N145',
                      NOM_CMP='TEMP',
                      PRECISION=1.E-2,
                      CHAM_GD=TPR,
                      VALE_CALC=0.200191877,
                      VALE_REFE=0.19927,
                      REFERENCE='ANALYTIQUE',),
                   _F(NOEUD='N149',
                      NOM_CMP='TEMP',
                      PRECISION=1.E-2,
                      CHAM_GD=TPR,
                      VALE_CALC=0.075690833,
                      VALE_REFE=0.075217999999999993,
                      REFERENCE='ANALYTIQUE',),
                   _F(NOEUD='N153',
                      CRITERE='ABSOLU',
                      NOM_CMP='TEMP',
                      CHAM_GD=TPR,
                      VALE_CALC=0.0,),
                   ),
          )

FIN()
#
