# TITRE   : DOMAINE EN L AVEC SINGULARITE GEOMETRIQUE
#            CONFIGURATION MANAGEMENT OF EDF VERSION
# ======================================================================
# COPYRIGHT (C) 1991 - 2012  EDF R&D                  WWW.CODE-ASTER.ORG
# THIS PROGRAM IS FREE SOFTWARE; YOU CAN REDISTRIBUTE IT AND/OR MODIFY
# IT UNDER THE TERMS OF THE GNU GENERAL PUBLIC LICENSE AS PUBLISHED BY
# THE FREE SOFTWARE FOUNDATION; EITHER VERSION 2 OF THE LICENSE, OR   
# (AT YOUR OPTION) ANY LATER VERSION.                                 
#
# THIS PROGRAM IS DISTRIBUTED IN THE HOPE THAT IT WILL BE USEFUL, BUT 
# WITHOUT ANY WARRANTY; WITHOUT EVEN THE IMPLIED WARRANTY OF          
# MERCHANTABILITY OR FITNESS FOR A PARTICULAR PURPOSE. SEE THE GNU    
# GENERAL PUBLIC LICENSE FOR MORE DETAILS.                            
#
# YOU SHOULD HAVE RECEIVED A COPY OF THE GNU GENERAL PUBLIC LICENSE   
# ALONG WITH THIS PROGRAM; IF NOT, WRITE TO EDF R&D CODE_ASTER,       
#    1 AVENUE DU GENERAL DE GAULLE, 92141 CLAMART CEDEX, FRANCE.      
# ======================================================================
#
# MAILLES : HEXA8
#

DEBUT(  CODE=_F( NOM = 'TPLP01B',NIV_PUB_WEB='INTERNET'))

#
# LECTURE DU MAILLAGE ----------------------------------------------
#

MAIL=LIRE_MAILLAGE(FORMAT='MED',)

#
# DEFINITION DES CHARGEMENTS ET DU MATERIAU ------------------------
#


MATE=DEFI_MATERIAU( THER=_F( RHO_CP = 1.0, LAMBDA = 1.0))

#
# AFFECTATIONS: MATERIAU  MODELE  CHARGEMENT ----------------------
#


ACIER=DEFI_MATERIAU( THER=_F(  LAMBDA = 1.0, RHO_CP = 1.0))

CHMAT=AFFE_MATERIAU(   MAILLAGE=MAIL,
                     AFFE=_F( TOUT = 'OUI',  MATER = MATE))

MOTH=AFFE_MODELE(  MAILLAGE=MAIL,
               AFFE=_F( TOUT = 'OUI', MODELISATION = '3D',
                                   PHENOMENE = 'THERMIQUE'))

CHTH=AFFE_CHAR_THER(  MODELE=MOTH,TEMP_IMPO=(
                      _F( GROUP_NO = 'GRNO1', TEMP = 10.0),
                      _F( GROUP_NO = 'GRNO2', TEMP = 0.0))
         )

#
# RESOLUTION -----------------------------------------------------------
#


TEMPE=THER_LINEAIRE(       MODELE=MOTH,
                            CHAM_MATER=CHMAT,
                                 EXCIT=_F(  CHARGE = CHTH),
                               SOLVEUR=_F( METHODE = 'LDLT', RENUM = 'RCMK')
                         )

#
# ANALYSE DES RESULTATS ------------------------------------------------
#
T2=CREA_CHAMP(  OPERATION='EXTR', TYPE_CHAM='NOEU_TEMP_R',
NOM_CHAM='TEMP', RESULTAT=TEMPE,
                   NUME_ORDRE=0)

TEST_RESU(CHAM_NO=(_F(NOEUD='N1',
                      NOM_CMP='TEMP',
                      PRECISION=1.E-2,
                      CHAM_GD=T2,
                      VALE_CALC=10.0,
                      VALE_REFE=10.0,
                      REFERENCE='ANALYTIQUE',),
                   _F(NOEUD='N2',
                      NOM_CMP='TEMP',
                      PRECISION=1.E-2,
                      CHAM_GD=T2,
                      VALE_CALC=10.0,
                      VALE_REFE=10.0,
                      REFERENCE='ANALYTIQUE',),
                   _F(NOEUD='N3',
                      NOM_CMP='TEMP',
                      PRECISION=1.E-2,
                      CHAM_GD=T2,
                      VALE_CALC=10.0,
                      VALE_REFE=10.0,
                      REFERENCE='ANALYTIQUE',),
                   _F(NOEUD='N4',
                      NOM_CMP='TEMP',
                      PRECISION=1.E-2,
                      CHAM_GD=T2,
                      VALE_CALC=10.0,
                      VALE_REFE=10.0,
                      REFERENCE='ANALYTIQUE',),
                   _F(NOEUD='N5',
                      NOM_CMP='TEMP',
                      PRECISION=1.E-2,
                      CHAM_GD=T2,
                      VALE_CALC=10.0,
                      VALE_REFE=10.0,
                      REFERENCE='ANALYTIQUE',),
                   _F(NOEUD='N6',
                      NOM_CMP='TEMP',
                      PRECISION=1.E-2,
                      CHAM_GD=T2,
                      VALE_CALC=10.0,
                      VALE_REFE=10.0,
                      REFERENCE='ANALYTIQUE',),
                   _F(NOEUD='N7',
                      NOM_CMP='TEMP',
                      PRECISION=1.E-2,
                      CHAM_GD=T2,
                      VALE_CALC=10.0,
                      VALE_REFE=10.0,
                      REFERENCE='ANALYTIQUE',),
                   _F(NOEUD='N8',
                      NOM_CMP='TEMP',
                      PRECISION=1.E-2,
                      CHAM_GD=T2,
                      VALE_CALC=10.0,
                      VALE_REFE=10.0,
                      REFERENCE='ANALYTIQUE',),
                   _F(NOEUD='N9',
                      NOM_CMP='TEMP',
                      PRECISION=1.E-2,
                      CHAM_GD=T2,
                      VALE_CALC=10.0,
                      VALE_REFE=10.0,
                      REFERENCE='ANALYTIQUE',),
                   _F(NOEUD='N10',
                      NOM_CMP='TEMP',
                      PRECISION=1.E-2,
                      CHAM_GD=T2,
                      VALE_CALC=10.0,
                      VALE_REFE=10.0,
                      REFERENCE='ANALYTIQUE',),
                   _F(NOEUD='N11',
                      NOM_CMP='TEMP',
                      PRECISION=1.E-2,
                      CHAM_GD=T2,
                      VALE_CALC=9.293744429,
                      VALE_REFE=9.3160000000000007,
                      REFERENCE='ANALYTIQUE',),
                   _F(NOEUD='N12',
                      NOM_CMP='TEMP',
                      PRECISION=1.E-2,
                      CHAM_GD=T2,
                      VALE_CALC=9.293744429,
                      VALE_REFE=9.3160000000000007,
                      REFERENCE='ANALYTIQUE',),
                   _F(NOEUD='N13',
                      NOM_CMP='TEMP',
                      PRECISION=1.E-2,
                      CHAM_GD=T2,
                      VALE_CALC=9.015377758,
                      VALE_REFE=9.0009999999999994,
                      REFERENCE='ANALYTIQUE',),
                   _F(NOEUD='N14',
                      NOM_CMP='TEMP',
                      PRECISION=1.E-2,
                      CHAM_GD=T2,
                      VALE_CALC=9.015377758,
                      VALE_REFE=9.0009999999999994,
                      REFERENCE='ANALYTIQUE',),
                   _F(NOEUD='N15',
                      NOM_CMP='TEMP',
                      PRECISION=1.E-2,
                      CHAM_GD=T2,
                      VALE_CALC=8.504777705,
                      VALE_REFE=8.5139999999999993,
                      REFERENCE='ANALYTIQUE',),
                   _F(NOEUD='N16',
                      NOM_CMP='TEMP',
                      PRECISION=1.E-2,
                      CHAM_GD=T2,
                      VALE_CALC=8.504777705,
                      VALE_REFE=8.5139999999999993,
                      REFERENCE='ANALYTIQUE',),
                   _F(NOEUD='N17',
                      NOM_CMP='TEMP',
                      PRECISION=1.E-2,
                      CHAM_GD=T2,
                      VALE_CALC=8.025493870,
                      VALE_REFE=8.0180000000000007,
                      REFERENCE='ANALYTIQUE',),
                   _F(NOEUD='N18',
                      NOM_CMP='TEMP',
                      PRECISION=1.E-2,
                      CHAM_GD=T2,
                      VALE_CALC=8.025493870,
                      VALE_REFE=8.0180000000000007,
                      REFERENCE='ANALYTIQUE',),
                   _F(NOEUD='N19',
                      NOM_CMP='TEMP',
                      PRECISION=1.E-2,
                      CHAM_GD=T2,
                      VALE_CALC=7.861423482,
                      VALE_REFE=7.8689999999999998,
                      REFERENCE='ANALYTIQUE',),
                   _F(NOEUD='N20',
                      NOM_CMP='TEMP',
                      PRECISION=1.E-2,
                      CHAM_GD=T2,
                      VALE_CALC=7.861423482,
                      VALE_REFE=7.8689999999999998,
                      REFERENCE='ANALYTIQUE',),
                   _F(NOEUD='N21',
                      NOM_CMP='TEMP',
                      PRECISION=1.E-2,
                      CHAM_GD=T2,
                      VALE_CALC=8.996466645,
                      VALE_REFE=9.0090000000000003,
                      REFERENCE='ANALYTIQUE',),
                   _F(NOEUD='N22',
                      NOM_CMP='TEMP',
                      PRECISION=1.E-2,
                      CHAM_GD=T2,
                      VALE_CALC=8.996466645,
                      VALE_REFE=9.0090000000000003,
                      REFERENCE='ANALYTIQUE',),
                   _F(NOEUD='N23',
                      NOM_CMP='TEMP',
                      PRECISION=1.E-2,
                      CHAM_GD=T2,
                      VALE_CALC=8.661366634,
                      VALE_REFE=8.6400000000000006,
                      REFERENCE='ANALYTIQUE',),
                   _F(NOEUD='N24',
                      NOM_CMP='TEMP',
                      PRECISION=1.E-2,
                      CHAM_GD=T2,
                      VALE_CALC=8.661366634,
                      VALE_REFE=8.6400000000000006,
                      REFERENCE='ANALYTIQUE',),
                   _F(NOEUD='N25',
                      NOM_CMP='TEMP',
                      PRECISION=1.E-2,
                      CHAM_GD=T2,
                      VALE_CALC=6.666666649,
                      VALE_REFE=6.6669999999999998,
                      REFERENCE='ANALYTIQUE',),
                   _F(NOEUD='N26',
                      NOM_CMP='TEMP',
                      PRECISION=1.E-2,
                      CHAM_GD=T2,
                      VALE_CALC=6.666666649,
                      VALE_REFE=6.6669999999999998,
                      REFERENCE='ANALYTIQUE',),
                   _F(NOEUD='N27',
                      NOM_CMP='TEMP',
                      PRECISION=1.E-2,
                      CHAM_GD=T2,
                      VALE_CALC=5.669316638,
                      VALE_REFE=5.6799999999999997,
                      REFERENCE='ANALYTIQUE',),
                   _F(NOEUD='N28',
                      NOM_CMP='TEMP',
                      PRECISION=1.E-2,
                      CHAM_GD=T2,
                      VALE_CALC=5.669316638,
                      VALE_REFE=5.6799999999999997,
                      REFERENCE='ANALYTIQUE',),
                   _F(NOEUD='N29',
                      NOM_CMP='TEMP',
                      PRECISION=1.E-2,
                      CHAM_GD=T2,
                      VALE_CALC=5.501766678,
                      VALE_REFE=5.4950000000000001,
                      REFERENCE='ANALYTIQUE',),
                   _F(NOEUD='N30',
                      NOM_CMP='TEMP',
                      PRECISION=1.E-2,
                      CHAM_GD=T2,
                      VALE_CALC=5.501766678,
                      VALE_REFE=5.4950000000000001,
                      REFERENCE='ANALYTIQUE',),
                   _F(NOEUD='N31',
                      NOM_CMP='TEMP',
                      PRECISION=1.E-2,
                      CHAM_GD=T2,
                      VALE_CALC=2.990444278,
                      VALE_REFE=2.972,
                      REFERENCE='ANALYTIQUE',),
                   _F(NOEUD='N32',
                      NOM_CMP='TEMP',
                      PRECISION=1.E-2,
                      CHAM_GD=T2,
                      VALE_CALC=2.990444278,
                      VALE_REFE=2.972,
                      REFERENCE='ANALYTIQUE',),
                   _F(NOEUD='N33',
                      NOM_CMP='TEMP',
                      PRECISION=0.029999999999999999,
                      CHAM_GD=T2,
                      VALE_CALC=2.959128039,
                      VALE_REFE=2.8809999999999998,
                      REFERENCE='ANALYTIQUE',),
                   _F(NOEUD='N34',
                      NOM_CMP='TEMP',
                      PRECISION=0.029999999999999999,
                      CHAM_GD=T2,
                      VALE_CALC=2.959128039,
                      VALE_REFE=2.8809999999999998,
                      REFERENCE='ANALYTIQUE',),
                   _F(NOEUD='N35',
                      NOM_CMP='TEMP',
                      PRECISION=0.010999999999999999,
                      CHAM_GD=T2,
                      VALE_CALC=2.844831813,
                      VALE_REFE=2.8159999999999998,
                      REFERENCE='ANALYTIQUE',),
                   _F(NOEUD='N36',
                      NOM_CMP='TEMP',
                      PRECISION=0.010999999999999999,
                      CHAM_GD=T2,
                      VALE_CALC=2.844831813,
                      VALE_REFE=2.8159999999999998,
                      REFERENCE='ANALYTIQUE',),
                   _F(NOEUD='N37',
                      CRITERE='ABSOLU',
                      NOM_CMP='TEMP',
                      CHAM_GD=T2,
                      VALE_CALC=0.0,),
                   _F(NOEUD='N38',
                      CRITERE='ABSOLU',
                      NOM_CMP='TEMP',
                      CHAM_GD=T2,
                      VALE_CALC=0.0,),
                   _F(NOEUD='N39',
                      CRITERE='ABSOLU',
                      NOM_CMP='TEMP',
                      CHAM_GD=T2,
                      VALE_CALC=0.0,),
                   _F(NOEUD='N40',
                      CRITERE='ABSOLU',
                      NOM_CMP='TEMP',
                      CHAM_GD=T2,
                      VALE_CALC=0.0,),
                   _F(NOEUD='N41',
                      CRITERE='ABSOLU',
                      NOM_CMP='TEMP',
                      CHAM_GD=T2,
                      VALE_CALC=0.0,),
                   _F(NOEUD='N42',
                      CRITERE='ABSOLU',
                      NOM_CMP='TEMP',
                      CHAM_GD=T2,
                      VALE_CALC=0.0,),
                   ),
          )

FIN()
#
#
