# MODIF  DATE 10/10/2012   AUTEUR COURTOIS M.COURTOIS 
# TITRE DOMAINE EN L AVEC SINGULARITE GEOMETRIQUE
# tplp01a.para = tps_job 60 mem_job 256Mo ncpus 1 liste_test V
#            CONFIGURATION MANAGEMENT OF EDF VERSION
# ======================================================================
# COPYRIGHT (C) 1991 - 2012  EDF R&D                  WWW.CODE-ASTER.ORG
# THIS PROGRAM IS FREE SOFTWARE; YOU CAN REDISTRIBUTE IT AND/OR MODIFY
# IT UNDER THE TERMS OF THE GNU GENERAL PUBLIC LICENSE AS PUBLISHED BY
# THE FREE SOFTWARE FOUNDATION; EITHER VERSION 2 OF THE LICENSE, OR   
# (AT YOUR OPTION) ANY LATER VERSION.                                 
#
# THIS PROGRAM IS DISTRIBUTED IN THE HOPE THAT IT WILL BE USEFUL, BUT 
# WITHOUT ANY WARRANTY; WITHOUT EVEN THE IMPLIED WARRANTY OF          
# MERCHANTABILITY OR FITNESS FOR A PARTICULAR PURPOSE. SEE THE GNU    
# GENERAL PUBLIC LICENSE FOR MORE DETAILS.                            
#
# YOU SHOULD HAVE RECEIVED A COPY OF THE GNU GENERAL PUBLIC LICENSE   
# ALONG WITH THIS PROGRAM; IF NOT, WRITE TO EDF R&D CODE_ASTER,       
#    1 AVENUE DU GENERAL DE GAULLE, 92141 CLAMART CEDEX, FRANCE.      
# ======================================================================
#
# MAILLES : QUAD8
#

DEBUT(  CODE=_F( NOM = 'TPLP01A',NIV_PUB_WEB='INTERNET'))

#
# LECTURE DU MAILLAGE ----------------------------------------------
#

MAIL=LIRE_MAILLAGE(FORMAT='MED',)

#
# DEFINITION DES CHARGEMENTS ET DU MATERIAU ------------------------
#


MATE=DEFI_MATERIAU( THER=_F( RHO_CP = 1.0, LAMBDA = 1.0))

#
# AFFECTATIONS: MATERIAU  MODELE  CHARGEMENT ----------------------
#


ACIER=DEFI_MATERIAU( THER=_F(  LAMBDA = 1.0, RHO_CP = 1.0))

CHMAT=AFFE_MATERIAU(   MAILLAGE=MAIL,
                     AFFE=_F( TOUT = 'OUI',  MATER = MATE))

MOTH=AFFE_MODELE(  MAILLAGE=MAIL,
               AFFE=_F( TOUT = 'OUI', MODELISATION = 'PLAN',
                                   PHENOMENE = 'THERMIQUE'))

CHTH=AFFE_CHAR_THER(  MODELE=MOTH,TEMP_IMPO=(
                      _F( GROUP_NO = 'GRNO1', TEMP = 10.0),
                      _F( GROUP_NO = 'GRNO2', TEMP = 0.0))
         )

#
# RESOLUTION -----------------------------------------------------------
#


TEMPE=THER_LINEAIRE(   MODELE=MOTH,
                            CHAM_MATER=CHMAT,
                            EXCIT=_F(  CHARGE = CHTH)
                         )

#
# ANALYSE DES RESULTATS ------------------------------------------------
#
T2=CREA_CHAMP(  OPERATION='EXTR', TYPE_CHAM='NOEU_TEMP_R',
NOM_CHAM='TEMP', RESULTAT=TEMPE,
                   NUME_ORDRE=0)

TEST_RESU(CHAM_NO=(_F(NOEUD='N1',
                      NOM_CMP='TEMP',
                      PRECISION=1.E-2,
                      CHAM_GD=T2,
                      VALE_CALC=10.000000000,
                      VALE_REFE=10.0,
                      REFERENCE='NON_DEFINI',),
                   _F(NOEUD='N2',
                      NOM_CMP='TEMP',
                      PRECISION=1.E-2,
                      CHAM_GD=T2,
                      VALE_CALC=10.000000000,
                      VALE_REFE=10.0,
                      REFERENCE='NON_DEFINI',),
                   _F(NOEUD='N3',
                      NOM_CMP='TEMP',
                      PRECISION=1.E-2,
                      CHAM_GD=T2,
                      VALE_CALC=10.000000000,
                      VALE_REFE=10.0,
                      REFERENCE='NON_DEFINI',),
                   _F(NOEUD='N4',
                      NOM_CMP='TEMP',
                      PRECISION=1.E-2,
                      CHAM_GD=T2,
                      VALE_CALC=10.000000000,
                      VALE_REFE=10.0,
                      REFERENCE='NON_DEFINI',),
                   _F(NOEUD='N5',
                      NOM_CMP='TEMP',
                      PRECISION=1.E-2,
                      CHAM_GD=T2,
                      VALE_CALC=10.000000000,
                      VALE_REFE=10.0,
                      REFERENCE='NON_DEFINI',),
                   _F(NOEUD='N6',
                      NOM_CMP='TEMP',
                      PRECISION=1.E-2,
                      CHAM_GD=T2,
                      VALE_CALC=10.000000000,
                      VALE_REFE=10.0,
                      REFERENCE='NON_DEFINI',),
                   _F(NOEUD='N7',
                      NOM_CMP='TEMP',
                      PRECISION=1.E-2,
                      CHAM_GD=T2,
                      VALE_CALC=10.000000000,
                      VALE_REFE=10.0,
                      REFERENCE='NON_DEFINI',),
                   _F(NOEUD='N8',
                      NOM_CMP='TEMP',
                      PRECISION=1.E-2,
                      CHAM_GD=T2,
                      VALE_CALC=10.000000000,
                      VALE_REFE=10.0,
                      REFERENCE='NON_DEFINI',),
                   _F(NOEUD='N9',
                      NOM_CMP='TEMP',
                      PRECISION=1.E-2,
                      CHAM_GD=T2,
                      VALE_CALC=10.000000000,
                      VALE_REFE=10.0,
                      REFERENCE='NON_DEFINI',),
                   _F(NOEUD='N15',
                      NOM_CMP='TEMP',
                      PRECISION=1.E-2,
                      CHAM_GD=T2,
                      VALE_CALC=9.282748896,
                      VALE_REFE=9.3160000000000007,
                      REFERENCE='NON_DEFINI',),
                   _F(NOEUD='N17',
                      NOM_CMP='TEMP',
                      PRECISION=0.012,
                      CHAM_GD=T2,
                      VALE_CALC=9.107787940,
                      VALE_REFE=9.0009999999999994,
                      REFERENCE='NON_DEFINI',),
                   _F(NOEUD='N19',
                      NOM_CMP='TEMP',
                      PRECISION=1.E-2,
                      CHAM_GD=T2,
                      VALE_CALC=8.518600664,
                      VALE_REFE=8.5139999999999993,
                      REFERENCE='NON_DEFINI',),
                   _F(NOEUD='N21',
                      NOM_CMP='TEMP',
                      PRECISION=1.E-2,
                      CHAM_GD=T2,
                      VALE_CALC=8.015029038,
                      VALE_REFE=8.0180000000000007,
                      REFERENCE='NON_DEFINI',),
                   _F(NOEUD='N23',
                      NOM_CMP='TEMP',
                      PRECISION=1.E-2,
                      CHAM_GD=T2,
                      VALE_CALC=7.882939302,
                      VALE_REFE=7.8689999999999998,
                      REFERENCE='NON_DEFINI',),
                   _F(NOEUD='N29',
                      NOM_CMP='TEMP',
                      PRECISION=1.E-2,
                      CHAM_GD=T2,
                      VALE_CALC=8.961318386,
                      VALE_REFE=9.0090000000000003,
                      REFERENCE='NON_DEFINI',),
                   _F(NOEUD='N31',
                      NOM_CMP='TEMP',
                      PRECISION=1.E-2,
                      CHAM_GD=T2,
                      VALE_CALC=8.668882310,
                      VALE_REFE=8.6400000000000006,
                      REFERENCE='NON_DEFINI',),
                   _F(NOEUD='N33',
                      NOM_CMP='TEMP',
                      PRECISION=1.E-2,
                      CHAM_GD=T2,
                      VALE_CALC=6.666666652,
                      VALE_REFE=6.6669999999999998,
                      REFERENCE='NON_DEFINI',),
                   _F(NOEUD='N35',
                      NOM_CMP='TEMP',
                      PRECISION=1.E-2,
                      CHAM_GD=T2,
                      VALE_CALC=5.665558808,
                      VALE_REFE=5.6799999999999997,
                      REFERENCE='NON_DEFINI',),
                   _F(NOEUD='N37',
                      NOM_CMP='TEMP',
                      PRECISION=1.E-2,
                      CHAM_GD=T2,
                      VALE_CALC=5.519340812,
                      VALE_REFE=5.4950000000000001,
                      REFERENCE='NON_DEFINI',),
                   _F(NOEUD='N41',
                      NOM_CMP='TEMP',
                      PRECISION=1.E-2,
                      CHAM_GD=T2,
                      VALE_CALC=2.962798366,
                      VALE_REFE=2.972,
                      REFERENCE='NON_DEFINI',),
                   _F(NOEUD='N43',
                      NOM_CMP='TEMP',
                      PRECISION=1.E-2,
                      CHAM_GD=T2,
                      VALE_CALC=2.877182696,
                      VALE_REFE=2.8809999999999998,
                      REFERENCE='NON_DEFINI',),
                   _F(NOEUD='N45',
                      NOM_CMP='TEMP',
                      PRECISION=1.E-2,
                      CHAM_GD=T2,
                      VALE_CALC=2.834311526,
                      VALE_REFE=2.8159999999999998,
                      REFERENCE='NON_DEFINI',),
                   _F(NOEUD='N49',
                      CRITERE='ABSOLU',
                      NOM_CMP='TEMP',
                      CHAM_GD=T2,
                      VALE_CALC=0.0,),
                   _F(NOEUD='N50',
                      CRITERE='ABSOLU',
                      NOM_CMP='TEMP',
                      CHAM_GD=T2,
                      VALE_CALC=0.0,),
                   _F(NOEUD='N51',
                      CRITERE='ABSOLU',
                      NOM_CMP='TEMP',
                      CHAM_GD=T2,
                      VALE_CALC=0.0,),
                   _F(NOEUD='N52',
                      CRITERE='ABSOLU',
                      NOM_CMP='TEMP',
                      CHAM_GD=T2,
                      VALE_CALC=0.0,),
                   _F(NOEUD='N53',
                      CRITERE='ABSOLU',
                      NOM_CMP='TEMP',
                      CHAM_GD=T2,
                      VALE_CALC=0.0,),
                   ),
          )

FIN()
#
#
