# TITRE DISTRIBUTION DE LA TEMPERATURE DANS SECTION D'UNE CHEMINEE
# ======================================================================
# COPYRIGHT (C) 1991 - 2012  EDF R&D                  WWW.CODE-ASTER.ORG
# THIS PROGRAM IS FREE SOFTWARE; YOU CAN REDISTRIBUTE IT AND/OR MODIFY
# IT UNDER THE TERMS OF THE GNU GENERAL PUBLIC LICENSE AS PUBLISHED BY
# THE FREE SOFTWARE FOUNDATION; EITHER VERSION 2 OF THE LICENSE, OR
# (AT YOUR OPTION) ANY LATER VERSION.
#
# THIS PROGRAM IS DISTRIBUTED IN THE HOPE THAT IT WILL BE USEFUL, BUT
# WITHOUT ANY WARRANTY; WITHOUT EVEN THE IMPLIED WARRANTY OF
# MERCHANTABILITY OR FITNESS FOR A PARTICULAR PURPOSE. SEE THE GNU
# GENERAL PUBLIC LICENSE FOR MORE DETAILS.
#
# YOU SHOULD HAVE RECEIVED A COPY OF THE GNU GENERAL PUBLIC LICENSE
# ALONG WITH THIS PROGRAM; IF NOT, WRITE TO EDF R&D CODE_ASTER,
#    1 AVENUE DU GENERAL DE GAULLE, 92141 CLAMART CEDEX, FRANCE.
# ======================================================================
#
# MAILLES : QUAD4
# UNITES ANGLAISES + SYMETRIE X=Y + QUE DES Q4 !
#

DEBUT(  CODE=_F(NIV_PUB_WEB='INTERNET'),DEBUG=_F(SDVERI='OUI'))

#
# LECTURE DU MAILLAGE ----------------------------------------------
#

MAIL=LIRE_MAILLAGE()

#
# DEFINITION DES CHARGEMENTS ET DU MATERIAU ------------------------
#


MATE=DEFI_MATERIAU(  THER=_F(  RHO_CP = 1.0, LAMBDA = 1.0) )

#
# AFFECTATIONS: MATERIAU  MODELE  CHARGEMENT ----------------------
#


CHMAT=AFFE_MATERIAU(    MAILLAGE=MAIL,
                           AFFE=_F(  TOUT = 'OUI',  MATER = MATE)
                        )

MOTH=AFFE_MODELE(   MAILLAGE=MAIL,
                       AFFE=_F( TOUT = 'OUI', MODELISATION = 'PLAN',
                                        PHENOMENE = 'THERMIQUE')
                     )

CHTH=AFFE_CHAR_THER(   MODELE=MOTH,ECHANGE=(
                           _F(  GROUP_MA = 'CONV_INT',
                                       COEF_H = 12.000E0,
                                     TEMP_EXT = 100.00E0),
                           _F(  GROUP_MA = 'CONV_EXT',
                                       COEF_H = 3.000E0,
                                     TEMP_EXT = 0.00E0))
                        )

#
# RESOLUTION -----------------------------------------------------------
#


TEMPE=THER_LINEAIRE(       MODELE=MOTH,
                            CHAM_MATER=CHMAT,
                                 EXCIT=_F(  CHARGE = CHTH),
                               SOLVEUR=_F( METHODE = 'LDLT',)
                         )

#
# ANALYSE DES RESULTATS ------------------------------------------------
#
TEMP=CREA_CHAMP(  OPERATION='EXTR', TYPE_CHAM='NOEU_TEMP_R',
NOM_CHAM='TEMP', RESULTAT=TEMPE, NUME_ORDRE=0 )

TEST_RESU(CHAM_NO=(_F(NOEUD='N1',
                      NOM_CMP='TEMP',
                      PRECISION=1.E-2,
                      CHAM_GD=TEMP,
                      VALE_CALC=93.454040056,
                      VALE_REFE=93.700000000000003,
                      REFERENCE='NON_DEFINI',),
                   _F(NOEUD='N1',
                      CRITERE='ABSOLU',
                      NOM_CMP='TEMP',
                      PRECISION=1.0,
                      CHAM_GD=TEMP,
                      VALE_CALC=93.454040056,
                      VALE_REFE=93.700000000000003,
                      REFERENCE='NON_DEFINI',),
                   _F(NOEUD='N4',
                      NOM_CMP='TEMP',
                      PRECISION=0.02,
                      CHAM_GD=TEMP,
                      VALE_CALC=94.148593284,
                      VALE_REFE=93.200000000000003,
                      REFERENCE='NON_DEFINI',),
                   _F(NOEUD='N4',
                      CRITERE='ABSOLU',
                      NOM_CMP='TEMP',
                      PRECISION=1.0,
                      CHAM_GD=TEMP,
                      VALE_CALC=94.148593284,
                      VALE_REFE=93.200000000000003,
                      REFERENCE='NON_DEFINI',),
                   _F(NOEUD='N7',
                      NOM_CMP='TEMP',
                      PRECISION=0.089999999999999997,
                      CHAM_GD=TEMP,
                      VALE_CALC=86.572036107,
                      VALE_REFE=87.599999999999994,
                      REFERENCE='NON_DEFINI',),
                   _F(NOEUD='N7',
                      CRITERE='ABSOLU',
                      NOM_CMP='TEMP',
                      PRECISION=2.0,
                      CHAM_GD=TEMP,
                      VALE_CALC=86.572036107,
                      VALE_REFE=87.599999999999994,
                      REFERENCE='NON_DEFINI',),
                   _F(NOEUD='N2',
                      NOM_CMP='TEMP',
                      PRECISION=0.02,
                      CHAM_GD=TEMP,
                      VALE_CALC=56.872368240,
                      VALE_REFE=56.299999999999997,
                      REFERENCE='NON_DEFINI',),
                   _F(NOEUD='N2',
                      CRITERE='ABSOLU',
                      NOM_CMP='TEMP',
                      PRECISION=1.0,
                      CHAM_GD=TEMP,
                      VALE_CALC=56.872368240,
                      VALE_REFE=56.299999999999997,
                      REFERENCE='NON_DEFINI',),
                   _F(NOEUD='N5',
                      NOM_CMP='TEMP',
                      PRECISION=1.E-2,
                      CHAM_GD=TEMP,
                      VALE_CALC=54.567619541,
                      VALE_REFE=54.600000000000001,
                      REFERENCE='NON_DEFINI',),
                   _F(NOEUD='N5',
                      CRITERE='ABSOLU',
                      NOM_CMP='TEMP',
                      PRECISION=1.0,
                      CHAM_GD=TEMP,
                      VALE_CALC=54.567619541,
                      VALE_REFE=54.600000000000001,
                      REFERENCE='NON_DEFINI',),
                   _F(NOEUD='N8',
                      NOM_CMP='TEMP',
                      PRECISION=0.059999999999999998,
                      CHAM_GD=TEMP,
                      VALE_CALC=45.002695174,
                      VALE_REFE=47.5,
                      REFERENCE='NON_DEFINI',),
                   _F(NOEUD='N8',
                      CRITERE='ABSOLU',
                      NOM_CMP='TEMP',
                      PRECISION=3.0,
                      CHAM_GD=TEMP,
                      VALE_CALC=45.002695174,
                      VALE_REFE=47.5,
                      REFERENCE='NON_DEFINI',),
                   _F(NOEUD='N11',
                      NOM_CMP='TEMP',
                      PRECISION=0.02,
                      CHAM_GD=TEMP,
                      VALE_CALC=29.898986914,
                      VALE_REFE=29.600000000000001,
                      REFERENCE='NON_DEFINI',),
                   _F(NOEUD='N11',
                      CRITERE='ABSOLU',
                      NOM_CMP='TEMP',
                      PRECISION=1.0,
                      CHAM_GD=TEMP,
                      VALE_CALC=29.898986914,
                      VALE_REFE=29.600000000000001,
                      REFERENCE='NON_DEFINI',),
                   _F(NOEUD='N3',
                      NOM_CMP='TEMP',
                      PRECISION=1.E-2,
                      CHAM_GD=TEMP,
                      VALE_CALC=22.219924040,
                      VALE_REFE=22.199999999999999,
                      REFERENCE='NON_DEFINI',),
                   _F(NOEUD='N3',
                      CRITERE='ABSOLU',
                      NOM_CMP='TEMP',
                      PRECISION=1.0,
                      CHAM_GD=TEMP,
                      VALE_CALC=22.219924040,
                      VALE_REFE=22.199999999999999,
                      REFERENCE='NON_DEFINI',),
                   _F(NOEUD='N6',
                      NOM_CMP='TEMP',
                      PRECISION=0.029999999999999999,
                      CHAM_GD=TEMP,
                      VALE_CALC=20.936278087,
                      VALE_REFE=21.399999999999999,
                      REFERENCE='NON_DEFINI',),
                   _F(NOEUD='N6',
                      CRITERE='ABSOLU',
                      NOM_CMP='TEMP',
                      PRECISION=1.0,
                      CHAM_GD=TEMP,
                      VALE_CALC=20.936278087,
                      VALE_REFE=21.399999999999999,
                      REFERENCE='NON_DEFINI',),
                   _F(NOEUD='N9',
                      NOM_CMP='TEMP',
                      PRECISION=0.059999999999999998,
                      CHAM_GD=TEMP,
                      VALE_CALC=17.335021339,
                      VALE_REFE=18.300000000000001,
                      REFERENCE='NON_DEFINI',),
                   _F(NOEUD='N9',
                      CRITERE='ABSOLU',
                      NOM_CMP='TEMP',
                      PRECISION=1.0,
                      CHAM_GD=TEMP,
                      VALE_CALC=17.335021339,
                      VALE_REFE=18.300000000000001,
                      REFERENCE='NON_DEFINI',),
                   _F(NOEUD='N12',
                      NOM_CMP='TEMP',
                      PRECISION=0.02,
                      CHAM_GD=TEMP,
                      VALE_CALC=11.560330947,
                      VALE_REFE=11.699999999999999,
                      REFERENCE='NON_DEFINI',),
                   _F(NOEUD='N12',
                      CRITERE='ABSOLU',
                      NOM_CMP='TEMP',
                      PRECISION=1.0,
                      CHAM_GD=TEMP,
                      VALE_CALC=11.560330947,
                      VALE_REFE=11.699999999999999,
                      REFERENCE='NON_DEFINI',),
                   _F(NOEUD='N15',
                      NOM_CMP='TEMP',
                      PRECISION=0.029999999999999999,
                      CHAM_GD=TEMP,
                      VALE_CALC=4.823764288,
                      VALE_REFE=4.7000000000000002,
                      REFERENCE='NON_DEFINI',),
                   _F(NOEUD='N15',
                      CRITERE='ABSOLU',
                      NOM_CMP='TEMP',
                      PRECISION=1.0,
                      CHAM_GD=TEMP,
                      VALE_CALC=4.823764288,
                      VALE_REFE=4.7000000000000002,
                      REFERENCE='NON_DEFINI',),
                   ),
          )

FIN()
#
#
