# MODIF  DATE 07/06/2000   AUTEUR VABHHTS J.PELLET 
# TITRE CONVECTION SUR LES BORDS D'UNE PLAQUE PLANE
#            CONFIGURATION MANAGEMENT OF EDF VERSION
# ======================================================================
# COPYRIGHT (C) 1991 - 2001  EDF R&D                  WWW.CODE-ASTER.ORG
# THIS PROGRAM IS FREE SOFTWARE; YOU CAN REDISTRIBUTE IT AND/OR MODIFY
# IT UNDER THE TERMS OF THE GNU GENERAL PUBLIC LICENSE AS PUBLISHED BY
# THE FREE SOFTWARE FOUNDATION; EITHER VERSION 2 OF THE LICENSE, OR   
# (AT YOUR OPTION) ANY LATER VERSION.                                 
#
# THIS PROGRAM IS DISTRIBUTED IN THE HOPE THAT IT WILL BE USEFUL, BUT 
# WITHOUT ANY WARRANTY; WITHOUT EVEN THE IMPLIED WARRANTY OF          
# MERCHANTABILITY OR FITNESS FOR A PARTICULAR PURPOSE. SEE THE GNU    
# GENERAL PUBLIC LICENSE FOR MORE DETAILS.                            
#
# YOU SHOULD HAVE RECEIVED A COPY OF THE GNU GENERAL PUBLIC LICENSE   
# ALONG WITH THIS PROGRAM; IF NOT, WRITE TO EDF R&D CODE_ASTER,       
#    1 AVENUE DU GENERAL DE GAULLE, 92141 CLAMART CEDEX, FRANCE.      
# ======================================================================
#
# MAILLES : QUAD4
#

DEBUT(  CODE=_F( NOM = 'TPLP300A',NIV_PUB_WEB='INTERNET')
      )

#
# LECTURE DU MAILLAGE --------------------------------------------------
#


MAIL=LIRE_MAILLAGE( )

#
# DEFINITION DES CHARGEMENTS ET DU MATERIAU ----------------------------
#

# ----- MATERIAU


MATER=DEFI_MATERIAU(   THER=_F(  LAMBDA = 52.,
                                   RHO_CP = 1.)
                         )

#
# AFFECTATIONS: MATERIAU, MODELE, CHARGEMENT ---------------------------
#


CHMAT=AFFE_MATERIAU(   MAILLAGE=MAIL,
                           AFFE=_F(  TOUT = 'OUI',  MATER = MATER)
                        )

MOTH=AFFE_MODELE(   MAILLAGE=MAIL,
                       AFFE=_F(  TOUT = 'OUI',
                              MODELISATION = 'PLAN',
                              PHENOMENE = 'THERMIQUE')
                     )

CHTH=AFFE_CHAR_THER(   MODELE=MOTH,
                           TEMP_IMPO=_F(  GROUP_NO = 'NO_TIMP',  TEMP = 100.),
                           ECHANGE=_F(  GROUP_MA = 'MA_CONV',  COEF_H = 750.,
                                                      TEMP_EXT = 0.)
                        )

#
# DEFINITION DE LA STRATEGIE DE CALCUL ---------------------------------
#

#
# RESOLUTION -----------------------------------------------------------
#


TEMPE=THER_LINEAIRE(   MODELE=MOTH,
                            CHAM_MATER=CHMAT,
                            EXCIT=_F(  CHARGE = CHTH)
                         )

#
# ANALYSE DES RESULTATS ------------------------------------------------
#

TPR=CREA_CHAMP(  OPERATION='EXTR', TYPE_CHAM='NOEU_TEMP_R',
NOM_CHAM='TEMP', RESULTAT=TEMPE,
                      NUME_ORDRE=0
                    )

TEST_RESU(CHAM_NO=(


_F( CHAM_GD = TPR,  NOEUD = 'N21',  NOM_CMP = 'TEMP',  VALE = 18.3, PRECISION = 2.E-2),

_F( CHAM_GD = TPR,  NOEUD = 'N1',   NOM_CMP = 'TEMP',  VALE = 100.0, PRECISION = 1.E-2),
_F( CHAM_GD = TPR,  NOEUD = 'N7',   NOM_CMP = 'TEMP',  VALE = 100.0, PRECISION = 1.E-2),
_F( CHAM_GD = TPR,  NOEUD = 'N77',  NOM_CMP = 'TEMP',  VALE = 0.0, PRECISION = 1.E+2,
                                                  CRITERE = 'ABSOLU'),
_F( CHAM_GD = TPR,  NOEUD = 'N70',  NOM_CMP = 'TEMP',  VALE = 0.0, PRECISION = 1.E+2,
                                                  CRITERE = 'ABSOLU'),

_F( CHAM_GD = TPR,  NOEUD = 'N15',  NOM_CMP = 'TEMP',  VALE = 0.0, PRECISION = 1.E+2,
                                                  CRITERE = 'ABSOLU'),
_F( CHAM_GD = TPR,  NOEUD = 'N16',  NOM_CMP = 'TEMP',  VALE = 0.0, PRECISION = 1.E+2,
                                                  CRITERE = 'ABSOLU'),
_F( CHAM_GD = TPR,  NOEUD = 'N17',  NOM_CMP = 'TEMP',  VALE = 0.0, PRECISION = 1.E+2,
                                                  CRITERE = 'ABSOLU'),
_F( CHAM_GD = TPR,  NOEUD = 'N18',  NOM_CMP = 'TEMP',  VALE = 0.0, PRECISION = 1.E+2,
                                                  CRITERE = 'ABSOLU'),
_F( CHAM_GD = TPR,  NOEUD = 'N19',  NOM_CMP = 'TEMP',  VALE = 0.0, PRECISION = 1.E+2,
                                                  CRITERE = 'ABSOLU'),
_F( CHAM_GD = TPR,  NOEUD = 'N20',  NOM_CMP = 'TEMP',  VALE = 0.0, PRECISION = 1.E+2,
                                                  CRITERE = 'ABSOLU'),
_F( CHAM_GD = TPR,  NOEUD = 'N21',  NOM_CMP = 'TEMP',  VALE = 0.0, PRECISION = 1.E+2,
                                                  CRITERE = 'ABSOLU'),

_F( CHAM_GD = TPR,  NOEUD = 'N7',   NOM_CMP = 'TEMP',  VALE = 0.0, PRECISION = 1.E+2,
                                                  CRITERE = 'ABSOLU'),
_F( CHAM_GD = TPR,  NOEUD = 'N14',  NOM_CMP = 'TEMP',  VALE = 0.0, PRECISION = 1.E+2,
                                                  CRITERE = 'ABSOLU'),
_F( CHAM_GD = TPR,  NOEUD = 'N21',  NOM_CMP = 'TEMP',  VALE = 0.0, PRECISION = 1.E+2,
                                                  CRITERE = 'ABSOLU'),
_F( CHAM_GD = TPR,  NOEUD = 'N28',  NOM_CMP = 'TEMP',  VALE = 0.0, PRECISION = 1.E+2,
                                                  CRITERE = 'ABSOLU'),
_F( CHAM_GD = TPR,  NOEUD = 'N35',  NOM_CMP = 'TEMP',  VALE = 0.0, PRECISION = 1.E+2,
                                                  CRITERE = 'ABSOLU'),
_F( CHAM_GD = TPR,  NOEUD = 'N42',  NOM_CMP = 'TEMP',  VALE = 0.0, PRECISION = 1.E+2,
                                                  CRITERE = 'ABSOLU'),
_F( CHAM_GD = TPR,  NOEUD = 'N49',  NOM_CMP = 'TEMP',  VALE = 0.0, PRECISION = 1.E+2,
                                                  CRITERE = 'ABSOLU'),
_F( CHAM_GD = TPR,  NOEUD = 'N56',  NOM_CMP = 'TEMP',  VALE = 0.0, PRECISION = 1.E+2,
                                                  CRITERE = 'ABSOLU'),
_F( CHAM_GD = TPR,  NOEUD = 'N63',  NOM_CMP = 'TEMP',  VALE = 0.0, PRECISION = 1.E+2,
                                                  CRITERE = 'ABSOLU'),
_F( CHAM_GD = TPR,  NOEUD = 'N71',  NOM_CMP = 'TEMP',  VALE = 0.0, PRECISION = 1.E+2,
                                                  CRITERE = 'ABSOLU'),
_F( CHAM_GD = TPR,  NOEUD = 'N77',  NOM_CMP = 'TEMP',  VALE = 0.0, PRECISION = 1.E+2,
                                                  CRITERE = 'ABSOLU'))

          )

#
# FIN ------------------------------------------------------------------
#

FIN()
#
#
