# MODIF  DATE 17/01/2012   AUTEUR SELLENET N.SELLENET 
# TITRE DOMAINE EN L AVEC SINGULARITE GEOMETRIQUE
#            CONFIGURATION MANAGEMENT OF EDF VERSION
# ======================================================================
# COPYRIGHT (C) 1991 - 2012  EDF R&D                  WWW.CODE-ASTER.ORG
# THIS PROGRAM IS FREE SOFTWARE; YOU CAN REDISTRIBUTE IT AND/OR MODIFY
# IT UNDER THE TERMS OF THE GNU GENERAL PUBLIC LICENSE AS PUBLISHED BY
# THE FREE SOFTWARE FOUNDATION; EITHER VERSION 2 OF THE LICENSE, OR   
# (AT YOUR OPTION) ANY LATER VERSION.                                 
#
# THIS PROGRAM IS DISTRIBUTED IN THE HOPE THAT IT WILL BE USEFUL, BUT 
# WITHOUT ANY WARRANTY; WITHOUT EVEN THE IMPLIED WARRANTY OF          
# MERCHANTABILITY OR FITNESS FOR A PARTICULAR PURPOSE. SEE THE GNU    
# GENERAL PUBLIC LICENSE FOR MORE DETAILS.                            
#
# YOU SHOULD HAVE RECEIVED A COPY OF THE GNU GENERAL PUBLIC LICENSE   
# ALONG WITH THIS PROGRAM; IF NOT, WRITE TO EDF R&D CODE_ASTER,       
#    1 AVENUE DU GENERAL DE GAULLE, 92141 CLAMART CEDEX, FRANCE.      
# ======================================================================
#
# MAILLES : QUAD8
#

DEBUT(  CODE=_F( NOM = 'TPLP01A',NIV_PUB_WEB='INTERNET'))

#
# LECTURE DU MAILLAGE ----------------------------------------------
#

MAIL=LIRE_MAILLAGE(FORMAT='MED',)

#
# DEFINITION DES CHARGEMENTS ET DU MATERIAU ------------------------
#


MATE=DEFI_MATERIAU( THER=_F( RHO_CP = 1.0, LAMBDA = 1.0))

#
# AFFECTATIONS: MATERIAU  MODELE  CHARGEMENT ----------------------
#


ACIER=DEFI_MATERIAU( THER=_F(  LAMBDA = 1.0, RHO_CP = 1.0))

CHMAT=AFFE_MATERIAU(   MAILLAGE=MAIL,
                     AFFE=_F( TOUT = 'OUI',  MATER = MATE))

MOTH=AFFE_MODELE(  MAILLAGE=MAIL,
               AFFE=_F( TOUT = 'OUI', MODELISATION = 'PLAN',
                                   PHENOMENE = 'THERMIQUE'))

CHTH=AFFE_CHAR_THER(  MODELE=MOTH,TEMP_IMPO=(
                      _F( GROUP_NO = 'GRNO1', TEMP = 10.0),
                      _F( GROUP_NO = 'GRNO2', TEMP = 0.0))
         )

#
# RESOLUTION -----------------------------------------------------------
#


TEMPE=THER_LINEAIRE(   MODELE=MOTH,
                            CHAM_MATER=CHMAT,
                            EXCIT=_F(  CHARGE = CHTH)
                         )

#
# ANALYSE DES RESULTATS ------------------------------------------------
#
T2=CREA_CHAMP(  OPERATION='EXTR', TYPE_CHAM='NOEU_TEMP_R',
NOM_CHAM='TEMP', RESULTAT=TEMPE,
                   NUME_ORDRE=0)

TEST_RESU(CHAM_NO=(
   
#
#------  X = 0.0
#
_F( CHAM_GD = T2, NOEUD = 'N1',   NOM_CMP = 'TEMP', VALE = 10.0, PRECISION = 1.E-2),
_F( CHAM_GD = T2, NOEUD = 'N2',   NOM_CMP = 'TEMP', VALE = 10.0, PRECISION = 1.E-2),
_F( CHAM_GD = T2, NOEUD = 'N3',   NOM_CMP = 'TEMP', VALE = 10.0, PRECISION = 1.E-2),
_F( CHAM_GD = T2, NOEUD = 'N4',   NOM_CMP = 'TEMP', VALE = 10.0, PRECISION = 1.E-2),
_F( CHAM_GD = T2, NOEUD = 'N5',   NOM_CMP = 'TEMP', VALE = 10.0, PRECISION = 1.E-2),
_F( CHAM_GD = T2, NOEUD = 'N6',   NOM_CMP = 'TEMP', VALE = 10.0, PRECISION = 1.E-2),
_F( CHAM_GD = T2, NOEUD = 'N7',   NOM_CMP = 'TEMP', VALE = 10.0, PRECISION = 1.E-2),
_F( CHAM_GD = T2, NOEUD = 'N8',   NOM_CMP = 'TEMP', VALE = 10.0, PRECISION = 1.E-2),
_F( CHAM_GD = T2, NOEUD = 'N9',   NOM_CMP = 'TEMP', VALE = 10.0, PRECISION = 1.E-2),
#
#------  X = 0.2
#
_F( CHAM_GD = T2, NOEUD = 'N15',  NOM_CMP = 'TEMP', VALE = 9.316, PRECISION = 1.E-2),
_F( CHAM_GD = T2, NOEUD = 'N17',  NOM_CMP = 'TEMP', VALE = 9.001, PRECISION = 1.2E-2),
_F( CHAM_GD = T2, NOEUD = 'N19',  NOM_CMP = 'TEMP', VALE = 8.514, PRECISION = 1.E-2),
_F( CHAM_GD = T2, NOEUD = 'N21',  NOM_CMP = 'TEMP', VALE = 8.018, PRECISION = 1.E-2),
_F( CHAM_GD = T2, NOEUD = 'N23',  NOM_CMP = 'TEMP', VALE = 7.869, PRECISION = 1.E-2),
#
#------  X = 0.4
#
_F( CHAM_GD = T2, NOEUD = 'N29',   NOM_CMP = 'TEMP', VALE = 9.009, PRECISION = 1.E-2),
_F( CHAM_GD = T2, NOEUD = 'N31',   NOM_CMP = 'TEMP', VALE = 8.640, PRECISION = 1.E-2),
_F( CHAM_GD = T2, NOEUD = 'N33',   NOM_CMP = 'TEMP', VALE = 6.667, PRECISION = 1.E-2),
_F( CHAM_GD = T2, NOEUD = 'N35',   NOM_CMP = 'TEMP', VALE = 5.680, PRECISION = 1.E-2),
_F( CHAM_GD = T2, NOEUD = 'N37',   NOM_CMP = 'TEMP', VALE = 5.495, PRECISION = 1.E-2),
#
#------  X = 0.6
#
_F( CHAM_GD = T2, NOEUD = 'N41',   NOM_CMP = 'TEMP', VALE = 2.972, PRECISION = 1.E-2),
_F( CHAM_GD = T2, NOEUD = 'N43',   NOM_CMP = 'TEMP', VALE = 2.881, PRECISION = 1.E-2),
_F( CHAM_GD = T2, NOEUD = 'N45',   NOM_CMP = 'TEMP', VALE = 2.816, PRECISION = 1.E-2),
#
#------  X = 0.8
#
_F( CHAM_GD = T2, NOEUD = 'N49',   NOM_CMP = 'TEMP', VALE = 0.0, CRITERE = 'ABSOLU',
           PRECISION = 1.E-10),
_F( CHAM_GD = T2, NOEUD = 'N50',   NOM_CMP = 'TEMP', VALE = 0.0, CRITERE = 'ABSOLU',
           PRECISION = 1.E-10),
_F( CHAM_GD = T2, NOEUD = 'N51',   NOM_CMP = 'TEMP', VALE = 0.0, CRITERE = 'ABSOLU',
           PRECISION = 1.E-10),
_F( CHAM_GD = T2, NOEUD = 'N52',   NOM_CMP = 'TEMP', VALE = 0.0, CRITERE = 'ABSOLU',
           PRECISION = 1.E-10),
_F( CHAM_GD = T2, NOEUD = 'N53',   NOM_CMP = 'TEMP', VALE = 0.0, CRITERE = 'ABSOLU',
           PRECISION = 1.E-10))
   )

FIN()
#
#
