# ======================================================================
# COPYRIGHT (C) 1991 - 2016  EDF R&D                  WWW.CODE-ASTER.ORG
# THIS PROGRAM IS FREE SOFTWARE; YOU CAN REDISTRIBUTE IT AND/OR MODIFY
# IT UNDER THE TERMS OF THE GNU GENERAL PUBLIC LICENSE AS PUBLISHED BY
# THE FREE SOFTWARE FOUNDATION; EITHER VERSION 2 OF THE LICENSE, OR
# (AT YOUR OPTION) ANY LATER VERSION.
#
# THIS PROGRAM IS DISTRIBUTED IN THE HOPE THAT IT WILL BE USEFUL, BUT
# WITHOUT ANY WARRANTY; WITHOUT EVEN THE IMPLIED WARRANTY OF
# MERCHANTABILITY OR FITNESS FOR A PARTICULAR PURPOSE. SEE THE GNU
# GENERAL PUBLIC LICENSE FOR MORE DETAILS.
#
# YOU SHOULD HAVE RECEIVED A COPY OF THE GNU GENERAL PUBLIC LICENSE
# ALONG WITH THIS PROGRAM; IF NOT, WRITE TO EDF R&D CODE_ASTER,
#    1 AVENUE DU GENERAL DE GAULLE, 92141 CLAMART CEDEX, FRANCE.
# ======================================================================
#
# PLAQUE INFINIE SOUMISE A DES COUPLES DE FLUX STATIONNAIRES
# SYMETRIQUES (MODELISATION COQUE THERMIQUE TRIA6)
# TROIS CALCULS : AFFE_CHAR_THER AVEC LAGRANGES,
#                 AFFE_CHAR_THER_F AVEC LAGRANGES,
#                 AFFE_CHAR_THER AVEC CHAR_CINE
#

DEBUT(  CODE=_F(NIV_PUB_WEB='INTERNET'),DEBUG=_F(SDVERI='OUI'))

M=LIRE_MAILLAGE(FORMAT='MED', )

M=DEFI_GROUP( reuse=M,   MAILLAGE=M,
  CREA_GROUP_MA=_F(  NOM = 'TOUT', TOUT = 'OUI'))

MO=AFFE_MODELE(
                       MAILLAGE=M,
                      AFFE=_F( TOUT = 'OUI',PHENOMENE = 'THERMIQUE',
                                      MODELISATION = 'COQUE'))

EPSYM=AFFE_CARA_ELEM( MODELE=MO,
                           COQUE=_F(
       GROUP_MA = 'TOUT',
EPAIS = 0.01) )

MASYM=DEFI_MATERIAU( THER=_F( RHO_CP = 1.0,LAMBDA = 1000.))

CMSYM=AFFE_MATERIAU(  MAILLAGE=M, AFFE=_F( TOUT = 'OUI',MATER = MASYM))

# =============================================================
# TEST DANS LE CAS D'UNE CHARGE DEFINIE PAR AFFE_CHAR_THER
# =============================================================

CHSYM=AFFE_CHAR_THER(
       MODELE=MO,
      TEMP_IMPO=_F( NOEUD = 'N1', TEMP_SUP = 0., TEMP_MIL= 0., TEMP_INF = 0.),ECHANGE=(
       _F( GROUP_MA = 'GRSD1', COEF_H_INF = 10., TEMP_EXT_INF = -50.,
                               COEF_H_SUP = 10., TEMP_EXT_SUP = -50.),
               _F( GROUP_MA = 'GRSD2', COEF_H_INF = 10., TEMP_EXT_INF = 50.,
                               COEF_H_SUP = 10., TEMP_EXT_SUP = 50.)))

TEMP=THER_LINEAIRE(MODELE=MO,
                    CARA_ELEM=EPSYM,
                    CHAM_MATER=CMSYM,
                    EXCIT=_F(CHARGE = CHSYM),
                    );

TEST_RESU(RESU=(_F(NUME_ORDRE=0,
                   RESULTAT=TEMP,
                   NOM_CHAM='TEMP',
                   NOEUD='N201',
                   NOM_CMP='TEMP_SUP',
                   REFERENCE='ANALYTIQUE',
                   VALE_REFE=49.999,
                   VALE_CALC=49.999925710615,
                   PRECISION=4.1E-05,
                   ),
                _F(NUME_ORDRE=0,
                   RESULTAT=TEMP,
                   NOM_CHAM='TEMP',
                   NOEUD='N201',
                   NOM_CMP='TEMP_INF',
                   REFERENCE='ANALYTIQUE',
                   VALE_REFE=49.999,
                   VALE_CALC=49.999925710615,
                   PRECISION=4.1E-05,
                   ),
                _F(NUME_ORDRE=0,
                   RESULTAT=TEMP,
                   NOM_CHAM='TEMP',
                   NOEUD='N201',
                   NOM_CMP='TEMP_MIL',
                   REFERENCE='ANALYTIQUE',
                   VALE_REFE=49.999,
                   VALE_CALC=49.999925708758,
                   PRECISION=4.1E-05,
                   ),
                _F(NUME_ORDRE=0,
                   RESULTAT=TEMP,
                   NOM_CHAM='TEMP',
                   NOEUD='N176',
                   NOM_CMP='TEMP_SUP',
                   REFERENCE='ANALYTIQUE',
                   VALE_REFE=49.9658,
                   VALE_CALC=49.96550518989,
                   PRECISION=4.1E-05,
                   ),
                _F(NUME_ORDRE=0,
                   RESULTAT=TEMP,
                   NOM_CHAM='TEMP',
                   NOEUD='N176',
                   NOM_CMP='TEMP_INF',
                   REFERENCE='ANALYTIQUE',
                   VALE_REFE=49.9658,
                   VALE_CALC=49.96550518989,
                   PRECISION=4.1E-05,
                   ),
                _F(NUME_ORDRE=0,
                   RESULTAT=TEMP,
                   NOM_CHAM='TEMP',
                   NOEUD='N176',
                   NOM_CMP='TEMP_MIL',
                   REFERENCE='ANALYTIQUE',
                   VALE_REFE=49.9658,
                   VALE_CALC=49.965504327633,
                   PRECISION=4.1E-05,
                   ),
                _F(NUME_ORDRE=0,
                   RESULTAT=TEMP,
                   NOM_CHAM='TEMP',
                   NOEUD='N171',
                   NOM_CMP='TEMP_SUP',
                   REFERENCE='ANALYTIQUE',
                   VALE_REFE=49.8888,
                   VALE_CALC=49.887956694921,
                   PRECISION=4.1E-05,
                   ),
                _F(NUME_ORDRE=0,
                   RESULTAT=TEMP,
                   NOM_CHAM='TEMP',
                   NOEUD='N171',
                   NOM_CMP='TEMP_INF',
                   REFERENCE='ANALYTIQUE',
                   VALE_REFE=49.8888,
                   VALE_CALC=49.887956694921,
                   PRECISION=4.1E-05,
                   ),
                _F(NUME_ORDRE=0,
                   RESULTAT=TEMP,
                   NOM_CHAM='TEMP',
                   NOEUD='N171',
                   NOM_CMP='TEMP_MIL',
                   REFERENCE='ANALYTIQUE',
                   VALE_REFE=49.8888,
                   VALE_CALC=49.887953894888,
                   PRECISION=4.1E-05,
                   ),
                _F(NUME_ORDRE=0,
                   RESULTAT=TEMP,
                   NOM_CHAM='TEMP',
                   NOEUD='N166',
                   NOM_CMP='TEMP_SUP',
                   REFERENCE='ANALYTIQUE',
                   VALE_REFE=49.6631,
                   VALE_CALC=49.661075764,
                   PRECISION=4.1E-05,
                   ),
                _F(NUME_ORDRE=0,
                   RESULTAT=TEMP,
                   NOM_CHAM='TEMP',
                   NOEUD='N166',
                   NOM_CMP='TEMP_INF',
                   REFERENCE='ANALYTIQUE',
                   VALE_REFE=49.6631,
                   VALE_CALC=49.661075764,
                   PRECISION=4.1E-05,
                   ),
                _F(NUME_ORDRE=0,
                   RESULTAT=TEMP,
                   NOM_CHAM='TEMP',
                   NOEUD='N166',
                   NOM_CMP='TEMP_MIL',
                   REFERENCE='ANALYTIQUE',
                   VALE_REFE=49.6631,
                   VALE_CALC=49.66106729913,
                   PRECISION=4.1E-05,
                   ),
                _F(NUME_ORDRE=0,
                   RESULTAT=TEMP,
                   NOM_CHAM='TEMP',
                   NOEUD='N161',
                   NOM_CMP='TEMP_SUP',
                   REFERENCE='ANALYTIQUE',
                   VALE_REFE=49.0542,
                   VALE_CALC=49.050036099162,
                   PRECISION=1.E-4,
                   ),
                _F(NUME_ORDRE=0,
                   RESULTAT=TEMP,
                   NOM_CHAM='TEMP',
                   NOEUD='N161',
                   NOM_CMP='TEMP_INF',
                   REFERENCE='ANALYTIQUE',
                   VALE_REFE=49.0542,
                   VALE_CALC=49.050036099162,
                   PRECISION=1.E-4,
                   ),
                _F(NUME_ORDRE=0,
                   RESULTAT=TEMP,
                   NOM_CHAM='TEMP',
                   NOEUD='N161',
                   NOM_CMP='TEMP_MIL',
                   REFERENCE='ANALYTIQUE',
                   VALE_REFE=49.0542,
                   VALE_CALC=49.050012403501,
                   PRECISION=1.E-4,
                   ),
                _F(NUME_ORDRE=0,
                   RESULTAT=TEMP,
                   NOM_CHAM='TEMP',
                   NOEUD='N156',
                   NOM_CMP='TEMP_SUP',
                   REFERENCE='ANALYTIQUE',
                   VALE_REFE=47.556,
                   VALE_CALC=47.548205005959,
                   PRECISION=1.8E-4,
                   ),
                _F(NUME_ORDRE=0,
                   RESULTAT=TEMP,
                   NOM_CHAM='TEMP',
                   NOEUD='N156',
                   NOM_CMP='TEMP_INF',
                   REFERENCE='ANALYTIQUE',
                   VALE_REFE=47.556,
                   VALE_CALC=47.548205005959,
                   PRECISION=1.8E-4,
                   ),
                _F(NUME_ORDRE=0,
                   RESULTAT=TEMP,
                   NOM_CHAM='TEMP',
                   NOEUD='N156',
                   NOM_CMP='TEMP_MIL',
                   REFERENCE='ANALYTIQUE',
                   VALE_REFE=47.556,
                   VALE_CALC=47.548144025092,
                   PRECISION=1.8000000000000001E-4,
                   ),
                _F(NUME_ORDRE=0,
                   RESULTAT=TEMP,
                   NOM_CHAM='TEMP',
                   NOEUD='N141',
                   NOM_CMP='TEMP_SUP',
                   REFERENCE='ANALYTIQUE',
                   VALE_REFE=26.700,
                   VALE_CALC=26.683335508463,
                   PRECISION=1.E-3,
                   ),
                _F(NUME_ORDRE=0,
                   RESULTAT=TEMP,
                   NOM_CHAM='TEMP',
                   NOEUD='N141',
                   NOM_CMP='TEMP_INF',
                   REFERENCE='ANALYTIQUE',
                   VALE_REFE=26.700,
                   VALE_CALC=26.683335508463,
                   PRECISION=1.E-3,
                   ),
                _F(NUME_ORDRE=0,
                   RESULTAT=TEMP,
                   NOM_CHAM='TEMP',
                   NOEUD='N141',
                   NOM_CMP='TEMP_MIL',
                   REFERENCE='ANALYTIQUE',
                   VALE_REFE=26.700,
                   VALE_CALC=26.682819218287,
                   PRECISION=1.E-3,
                   ),
                _F(NUME_ORDRE=0,
                   RESULTAT=TEMP,
                   NOM_CHAM='TEMP',
                   NOEUD='N136',
                   NOM_CMP='TEMP_SUP',
                   REFERENCE='ANALYTIQUE',
                   VALE_REFE=11.83,
                   VALE_CALC=11.821210635928,
                   PRECISION=1.E-3,
                   ),
                _F(NUME_ORDRE=0,
                   RESULTAT=TEMP,
                   NOM_CHAM='TEMP',
                   NOEUD='N136',
                   NOM_CMP='TEMP_INF',
                   REFERENCE='ANALYTIQUE',
                   VALE_REFE=11.83,
                   VALE_CALC=11.821210635928,
                   PRECISION=1.E-3,
                   ),
                _F(NUME_ORDRE=0,
                   RESULTAT=TEMP,
                   NOM_CHAM='TEMP',
                   NOEUD='N136',
                   NOM_CMP='TEMP_MIL',
                   REFERENCE='ANALYTIQUE',
                   VALE_REFE=11.83,
                   VALE_CALC=11.820639545521,
                   PRECISION=1.E-3,
                   ),
                _F(NUME_ORDRE=0,
                   RESULTAT=TEMP,
                   NOM_CHAM='TEMP',
                   NOEUD='N11',
                   NOM_CMP='TEMP_SUP',
                   REFERENCE='ANALYTIQUE',
                   VALE_REFE=-26.700,
                   VALE_CALC=-26.683335508472,
                   PRECISION=6.4000000000000005E-4,
                   ),
                _F(NUME_ORDRE=0,
                   RESULTAT=TEMP,
                   NOM_CHAM='TEMP',
                   NOEUD='N11',
                   NOM_CMP='TEMP_INF',
                   REFERENCE='ANALYTIQUE',
                   VALE_REFE=-26.700,
                   VALE_CALC=-26.683335508472,
                   PRECISION=6.4000000000000005E-4,
                   ),
                _F(NUME_ORDRE=0,
                   RESULTAT=TEMP,
                   NOM_CHAM='TEMP',
                   NOEUD='N11',
                   NOM_CMP='TEMP_MIL',
                   REFERENCE='ANALYTIQUE',
                   VALE_REFE=-26.700,
                   VALE_CALC=-26.682819218296,
                   PRECISION=1.E-3,
                   ),
                _F(NUME_ORDRE=0,
                   RESULTAT=TEMP,
                   NOM_CHAM='TEMP',
                   NOEUD='N26',
                   NOM_CMP='TEMP_SUP',
                   REFERENCE='ANALYTIQUE',
                   VALE_REFE=-47.556,
                   VALE_CALC=-47.54820500597,
                   PRECISION=5.E-4,
                   ),
                _F(NUME_ORDRE=0,
                   RESULTAT=TEMP,
                   NOM_CHAM='TEMP',
                   NOEUD='N26',
                   NOM_CMP='TEMP_INF',
                   REFERENCE='ANALYTIQUE',
                   VALE_REFE=-47.556,
                   VALE_CALC=-47.54820500597,
                   PRECISION=5.E-4,
                   ),
                _F(NUME_ORDRE=0,
                   RESULTAT=TEMP,
                   NOM_CHAM='TEMP',
                   NOEUD='N26',
                   NOM_CMP='TEMP_MIL',
                   REFERENCE='ANALYTIQUE',
                   VALE_REFE=-47.556,
                   VALE_CALC=-47.548144025103,
                   PRECISION=5.E-4,
                   ),
                ),
          )

# =============================================================
# MEME TEST DANS LE CAS D'UNE CHARGE DEFINIE PAR AFFE_CHAR_THER_F
# =============================================================


VAL0=DEFI_CONSTANTE( VALE=0.)

VAL10=DEFI_CONSTANTE( VALE=10.)

VAL50=DEFI_CONSTANTE(  VALE=50.)

VALM50=DEFI_CONSTANTE( VALE=-50.)

CHSYMF=AFFE_CHAR_THER_F(
       MODELE=MO,
      TEMP_IMPO=_F( NOEUD = 'N1', TEMP_SUP = VAL0, TEMP_MIL= VAL0, TEMP_INF = VAL0),ECHANGE=(
       _F( GROUP_MA = 'GRSD1', COEF_H_INF = VAL10, TEMP_EXT_INF = VALM50,
                               COEF_H_SUP = VAL10, TEMP_EXT_SUP = VALM50),
               _F( GROUP_MA = 'GRSD2', COEF_H_INF = VAL10, TEMP_EXT_INF = VAL50,
                               COEF_H_SUP = VAL10, TEMP_EXT_SUP = VAL50)))

MESYMF=CALC_MATR_ELEM(
                    MODELE=MO,CHARGE=CHSYMF,CHAM_MATER=CMSYM,
                      CARA_ELEM=EPSYM, OPTION='RIGI_THER'    )

VESYMF=CALC_VECT_ELEM(  CHARGE=CHSYMF,
                             OPTION='CHAR_THER' )

NUSYMF=NUME_DDL(   MATR_RIGI=MESYMF )

KSF=ASSE_MATRICE(   MATR_ELEM=MESYMF,   NUME_DDL=NUSYMF )

FSF=ASSE_VECTEUR(   VECT_ELEM=VESYMF, NUME_DDL=NUSYMF )

KSF=FACTORISER( reuse=KSF,   MATR_ASSE=KSF)

TEMPSF=RESOUDRE(   MATR=KSF,    CHAM_NO=FSF )

TEST_RESU(CHAM_NO=(_F(NOEUD='N201',
                      NOM_CMP='TEMP_SUP',
                      CHAM_GD=TEMPSF,
                      REFERENCE='ANALYTIQUE',
                      VALE_REFE=49.999,
                      VALE_CALC=49.999925710615,
                      PRECISION=4.1E-05,),
                   _F(NOEUD='N201',
                      NOM_CMP='TEMP_INF',
                      CHAM_GD=TEMPSF,
                      REFERENCE='ANALYTIQUE',
                      VALE_REFE=49.999,
                      VALE_CALC=49.999925710615,
                      PRECISION=4.1E-05,),
                   _F(NOEUD='N201',
                      NOM_CMP='TEMP_MIL',
                      CHAM_GD=TEMPSF,
                      REFERENCE='ANALYTIQUE',
                      VALE_REFE=49.999,
                      VALE_CALC=49.999925708758,
                      PRECISION=4.1E-05,),
                   _F(NOEUD='N176',
                      NOM_CMP='TEMP_SUP',
                      CHAM_GD=TEMPSF,
                      REFERENCE='ANALYTIQUE',
                      VALE_REFE=49.9658,
                      VALE_CALC=49.96550518989,
                      PRECISION=4.1E-05,),
                   _F(NOEUD='N176',
                      NOM_CMP='TEMP_INF',
                      CHAM_GD=TEMPSF,
                      REFERENCE='ANALYTIQUE',
                      VALE_REFE=49.9658,
                      VALE_CALC=49.96550518989,
                      PRECISION=4.1E-05,),
                   _F(NOEUD='N176',
                      NOM_CMP='TEMP_MIL',
                      CHAM_GD=TEMPSF,
                      REFERENCE='ANALYTIQUE',
                      VALE_REFE=49.9658,
                      VALE_CALC=49.965504327633,
                      PRECISION=4.1E-05,),
                   _F(NOEUD='N171',
                      NOM_CMP='TEMP_SUP',
                      CHAM_GD=TEMPSF,
                      REFERENCE='ANALYTIQUE',
                      VALE_REFE=49.8888,
                      VALE_CALC=49.887956694921,
                      PRECISION=4.1E-05,),
                   _F(NOEUD='N171',
                      NOM_CMP='TEMP_INF',
                      CHAM_GD=TEMPSF,
                      REFERENCE='ANALYTIQUE',
                      VALE_REFE=49.8888,
                      VALE_CALC=49.887956694921,
                      PRECISION=4.1E-05,),
                   _F(NOEUD='N171',
                      NOM_CMP='TEMP_MIL',
                      CHAM_GD=TEMPSF,
                      REFERENCE='ANALYTIQUE',
                      VALE_REFE=49.8888,
                      VALE_CALC=49.887953894888,
                      PRECISION=4.1E-05,),
                   _F(NOEUD='N166',
                      NOM_CMP='TEMP_SUP',
                      CHAM_GD=TEMPSF,
                      REFERENCE='ANALYTIQUE',
                      VALE_REFE=49.6631,
                      VALE_CALC=49.661075764,
                      PRECISION=4.1E-05,),
                   _F(NOEUD='N166',
                      NOM_CMP='TEMP_INF',
                      CHAM_GD=TEMPSF,
                      REFERENCE='ANALYTIQUE',
                      VALE_REFE=49.6631,
                      VALE_CALC=49.661075764,
                      PRECISION=4.1E-05,),
                   _F(NOEUD='N166',
                      NOM_CMP='TEMP_MIL',
                      CHAM_GD=TEMPSF,
                      REFERENCE='ANALYTIQUE',
                      VALE_REFE=49.6631,
                      VALE_CALC=49.66106729913,
                      PRECISION=4.1E-05,),
                   _F(NOEUD='N161',
                      NOM_CMP='TEMP_SUP',
                      CHAM_GD=TEMPSF,
                      REFERENCE='ANALYTIQUE',
                      VALE_REFE=49.0542,
                      VALE_CALC=49.050036099162,
                      PRECISION=1.E-4,),
                   _F(NOEUD='N161',
                      NOM_CMP='TEMP_INF',
                      CHAM_GD=TEMPSF,
                      REFERENCE='ANALYTIQUE',
                      VALE_REFE=49.0542,
                      VALE_CALC=49.050036099162,
                      PRECISION=1.E-4,),
                   _F(NOEUD='N161',
                      NOM_CMP='TEMP_MIL',
                      CHAM_GD=TEMPSF,
                      REFERENCE='ANALYTIQUE',
                      VALE_REFE=49.0542,
                      VALE_CALC=49.050012403501,
                      PRECISION=1.E-4,),
                   _F(NOEUD='N156',
                      NOM_CMP='TEMP_SUP',
                      CHAM_GD=TEMPSF,
                      REFERENCE='ANALYTIQUE',
                      VALE_REFE=47.556,
                      VALE_CALC=47.548205005959,
                      PRECISION=1.7E-4,),
                   _F(NOEUD='N156',
                      NOM_CMP='TEMP_INF',
                      CHAM_GD=TEMPSF,
                      REFERENCE='ANALYTIQUE',
                      VALE_REFE=47.556,
                      VALE_CALC=47.548205005959,
                      PRECISION=1.7E-4,),
                   _F(NOEUD='N156',
                      NOM_CMP='TEMP_MIL',
                      CHAM_GD=TEMPSF,
                      REFERENCE='ANALYTIQUE',
                      VALE_REFE=47.556,
                      VALE_CALC=47.548144025092,
                      PRECISION=1.9E-4,),
                   _F(NOEUD='N141',
                      NOM_CMP='TEMP_SUP',
                      CHAM_GD=TEMPSF,
                      REFERENCE='ANALYTIQUE',
                      VALE_REFE=26.700,
                      VALE_CALC=26.683335508463,
                      PRECISION=1.E-3,),
                   _F(NOEUD='N141',
                      NOM_CMP='TEMP_INF',
                      CHAM_GD=TEMPSF,
                      REFERENCE='ANALYTIQUE',
                      VALE_REFE=26.700,
                      VALE_CALC=26.683335508463,
                      PRECISION=1.E-3,),
                   _F(NOEUD='N141',
                      NOM_CMP='TEMP_MIL',
                      CHAM_GD=TEMPSF,
                      REFERENCE='ANALYTIQUE',
                      VALE_REFE=26.700,
                      VALE_CALC=26.682819218287,
                      PRECISION=1.E-3,),
                   _F(NOEUD='N136',
                      NOM_CMP='TEMP_SUP',
                      CHAM_GD=TEMPSF,
                      REFERENCE='ANALYTIQUE',
                      VALE_REFE=11.83,
                      VALE_CALC=11.821210635928,
                      PRECISION=1.E-3,),
                   _F(NOEUD='N136',
                      NOM_CMP='TEMP_INF',
                      CHAM_GD=TEMPSF,
                      REFERENCE='ANALYTIQUE',
                      VALE_REFE=11.83,
                      VALE_CALC=11.821210635928,
                      PRECISION=1.E-3,),
                   _F(NOEUD='N136',
                      NOM_CMP='TEMP_MIL',
                      CHAM_GD=TEMPSF,
                      REFERENCE='ANALYTIQUE',
                      VALE_REFE=11.83,
                      VALE_CALC=11.820639545521,
                      PRECISION=1.E-3,),
                   _F(NOEUD='N11',
                      NOM_CMP='TEMP_SUP',
                      CHAM_GD=TEMPSF,
                      REFERENCE='ANALYTIQUE',
                      VALE_REFE=-26.700,
                      VALE_CALC=-26.683335508472,
                      PRECISION=6.4E-4,),
                   _F(NOEUD='N11',
                      NOM_CMP='TEMP_INF',
                      CHAM_GD=TEMPSF,
                      REFERENCE='ANALYTIQUE',
                      VALE_REFE=-26.700,
                      VALE_CALC=-26.683335508472,
                      PRECISION=6.4E-4,),
                   _F(NOEUD='N11',
                      NOM_CMP='TEMP_MIL',
                      CHAM_GD=TEMPSF,
                      REFERENCE='ANALYTIQUE',
                      VALE_REFE=-26.700,
                      VALE_CALC=-26.682819218296,
                      PRECISION=1.E-3,),
                   _F(NOEUD='N26',
                      NOM_CMP='TEMP_SUP',
                      CHAM_GD=TEMPSF,
                      REFERENCE='ANALYTIQUE',
                      VALE_REFE=-47.556,
                      VALE_CALC=-47.54820500597,
                      PRECISION=5.E-4,),
                   _F(NOEUD='N26',
                      NOM_CMP='TEMP_INF',
                      CHAM_GD=TEMPSF,
                      REFERENCE='ANALYTIQUE',
                      VALE_REFE=-47.556,
                      VALE_CALC=-47.54820500597,
                      PRECISION=5.E-4,),
                   _F(NOEUD='N26',
                      NOM_CMP='TEMP_MIL',
                      CHAM_GD=TEMPSF,
                      REFERENCE='ANALYTIQUE',
                      VALE_REFE=-47.556,
                      VALE_CALC=-47.548144025103,
                      PRECISION=5.E-4,),
                   ),
          )

# =============================================================
# MEME TEST DANS LE CAS D'UNE CHARGE DEFINIE PAR AFFE_CHAR_THER
#                                             ET CHAR_CINE
# =============================================================


CHSYMC=AFFE_CHAR_THER(
       MODELE=MO,ECHANGE=(
       _F( GROUP_MA = 'GRSD1', COEF_H_INF = 10., TEMP_EXT_INF = -50.,
                               COEF_H_SUP = 10., TEMP_EXT_SUP = -50.),
               _F( GROUP_MA = 'GRSD2', COEF_H_INF = 10., TEMP_EXT_INF = 50.,
                               COEF_H_SUP = 10., TEMP_EXT_SUP = 50.)))

CHCINE=AFFE_CHAR_CINE(
       MODELE=MO,
      THER_IMPO=_F( NOEUD = 'N1', TEMP_SUP = 0., TEMP_MIL= 0., TEMP_INF = 0.))

CHCINE1=AFFE_CHAR_CINE(
       MODELE=MO,
      THER_IMPO=_F( NOEUD = 'N1', TEMP_SUP = 0., TEMP_MIL= 0.))
CHCINE2=AFFE_CHAR_CINE(
       MODELE=MO,
      THER_IMPO=_F( NOEUD = 'N1', TEMP_INF = 0.))


MESYMC=CALC_MATR_ELEM(
                    MODELE=MO,CHARGE=CHSYMC,CHAM_MATER=CMSYM,
                      CARA_ELEM=EPSYM, OPTION='RIGI_THER'    )

VESYMC=CALC_VECT_ELEM(  CHARGE=CHSYMC,
                             OPTION='CHAR_THER' )

NUSYMC=NUME_DDL(   MATR_RIGI=MESYMC )

KSC=ASSE_MATRICE(   MATR_ELEM=MESYMC,   NUME_DDL=NUSYMC,
                            CHAR_CINE=CHCINE )

VCINE=CALC_CHAR_CINE(   NUME_DDL=NUSYMC,  CHAR_CINE=(CHCINE1,CHCINE2,))

FSC=ASSE_VECTEUR(   VECT_ELEM=VESYMC, NUME_DDL=NUSYMC  )

KSC=FACTORISER( reuse=KSC,  MATR_ASSE=KSC)

TEMPSC=RESOUDRE(   MATR=KSC,    CHAM_NO=FSC,
                         CHAM_CINE=VCINE )


TEST_RESU(CHAM_NO=(_F(NOEUD='N201',
                      NOM_CMP='TEMP_SUP',
                      CHAM_GD=TEMPSC,
                      REFERENCE='ANALYTIQUE',
                      VALE_REFE=49.999,
                      VALE_CALC=49.999925710615,
                      PRECISION=4.1E-05,),
                   _F(NOEUD='N201',
                      NOM_CMP='TEMP_INF',
                      CHAM_GD=TEMPSC,
                      REFERENCE='ANALYTIQUE',
                      VALE_REFE=49.999,
                      VALE_CALC=49.999925710615,
                      PRECISION=4.1E-05,),
                   _F(NOEUD='N201',
                      NOM_CMP='TEMP_MIL',
                      CHAM_GD=TEMPSC,
                      REFERENCE='ANALYTIQUE',
                      VALE_REFE=49.999,
                      VALE_CALC=49.999925708758,
                      PRECISION=4.1E-05,),
                   _F(NOEUD='N176',
                      NOM_CMP='TEMP_SUP',
                      CHAM_GD=TEMPSC,
                      REFERENCE='ANALYTIQUE',
                      VALE_REFE=49.9658,
                      VALE_CALC=49.96550518989,
                      PRECISION=4.1E-05,),
                   _F(NOEUD='N176',
                      NOM_CMP='TEMP_INF',
                      CHAM_GD=TEMPSC,
                      REFERENCE='ANALYTIQUE',
                      VALE_REFE=49.9658,
                      VALE_CALC=49.96550518989,
                      PRECISION=4.1E-05,),
                   _F(NOEUD='N176',
                      NOM_CMP='TEMP_MIL',
                      CHAM_GD=TEMPSC,
                      REFERENCE='ANALYTIQUE',
                      VALE_REFE=49.9658,
                      VALE_CALC=49.965504327633,
                      PRECISION=4.1E-05,),
                   _F(NOEUD='N171',
                      NOM_CMP='TEMP_SUP',
                      CHAM_GD=TEMPSC,
                      REFERENCE='ANALYTIQUE',
                      VALE_REFE=49.8888,
                      VALE_CALC=49.887956694921,
                      PRECISION=4.1E-05,),
                   _F(NOEUD='N171',
                      NOM_CMP='TEMP_INF',
                      CHAM_GD=TEMPSC,
                      REFERENCE='ANALYTIQUE',
                      VALE_REFE=49.8888,
                      VALE_CALC=49.887956694921,
                      PRECISION=4.1E-05,),
                   _F(NOEUD='N171',
                      NOM_CMP='TEMP_MIL',
                      CHAM_GD=TEMPSC,
                      REFERENCE='ANALYTIQUE',
                      VALE_REFE=49.8888,
                      VALE_CALC=49.887953894888,
                      PRECISION=4.1E-05,),
                   _F(NOEUD='N166',
                      NOM_CMP='TEMP_SUP',
                      CHAM_GD=TEMPSC,
                      REFERENCE='ANALYTIQUE',
                      VALE_REFE=49.6631,
                      VALE_CALC=49.661075764,
                      PRECISION=4.1E-05,),
                   _F(NOEUD='N166',
                      NOM_CMP='TEMP_INF',
                      CHAM_GD=TEMPSC,
                      REFERENCE='ANALYTIQUE',
                      VALE_REFE=49.6631,
                      VALE_CALC=49.661075764,
                      PRECISION=4.1E-05,),
                   _F(NOEUD='N166',
                      NOM_CMP='TEMP_MIL',
                      CHAM_GD=TEMPSC,
                      REFERENCE='ANALYTIQUE',
                      VALE_REFE=49.6631,
                      VALE_CALC=49.66106729913,
                      PRECISION=4.1E-05,),
                   _F(NOEUD='N161',
                      NOM_CMP='TEMP_SUP',
                      CHAM_GD=TEMPSC,
                      REFERENCE='ANALYTIQUE',
                      VALE_REFE=49.0542,
                      VALE_CALC=49.050036099162,
                      PRECISION=1.7E-4,),
                   _F(NOEUD='N161',
                      NOM_CMP='TEMP_INF',
                      CHAM_GD=TEMPSC,
                      REFERENCE='ANALYTIQUE',
                      VALE_REFE=49.0542,
                      VALE_CALC=49.050036099162,
                      PRECISION=1.7E-4,),
                   _F(NOEUD='N161',
                      NOM_CMP='TEMP_MIL',
                      CHAM_GD=TEMPSC,
                      REFERENCE='ANALYTIQUE',
                      VALE_REFE=49.0542,
                      VALE_CALC=49.050012403501,
                      PRECISION=1.7E-4,),
                   _F(NOEUD='N156',
                      NOM_CMP='TEMP_SUP',
                      CHAM_GD=TEMPSC,
                      REFERENCE='ANALYTIQUE',
                      VALE_REFE=47.556,
                      VALE_CALC=47.548205005959,
                      PRECISION=1.7E-4,),
                   _F(NOEUD='N156',
                      NOM_CMP='TEMP_INF',
                      CHAM_GD=TEMPSC,
                      REFERENCE='ANALYTIQUE',
                      VALE_REFE=47.556,
                      VALE_CALC=47.548205005959,
                      PRECISION=1.7E-4,),
                   _F(NOEUD='N156',
                      NOM_CMP='TEMP_MIL',
                      CHAM_GD=TEMPSC,
                      REFERENCE='ANALYTIQUE',
                      VALE_REFE=47.556,
                      VALE_CALC=47.548144025092,
                      PRECISION=1.9E-4,),
                   _F(NOEUD='N141',
                      NOM_CMP='TEMP_SUP',
                      CHAM_GD=TEMPSC,
                      REFERENCE='ANALYTIQUE',
                      VALE_REFE=26.700,
                      VALE_CALC=26.683335508462,
                      PRECISION=1.E-3,),
                   _F(NOEUD='N141',
                      NOM_CMP='TEMP_INF',
                      CHAM_GD=TEMPSC,
                      REFERENCE='ANALYTIQUE',
                      VALE_REFE=26.700,
                      VALE_CALC=26.683335508462,
                      PRECISION=1.E-3,),
                   _F(NOEUD='N141',
                      NOM_CMP='TEMP_MIL',
                      CHAM_GD=TEMPSC,
                      REFERENCE='ANALYTIQUE',
                      VALE_REFE=26.700,
                      VALE_CALC=26.682819218286,
                      PRECISION=1.E-3,),
                   _F(NOEUD='N136',
                      NOM_CMP='TEMP_SUP',
                      CHAM_GD=TEMPSC,
                      REFERENCE='ANALYTIQUE',
                      VALE_REFE=11.83,
                      VALE_CALC=11.821210635928,
                      PRECISION=1.E-3,),
                   _F(NOEUD='N136',
                      NOM_CMP='TEMP_INF',
                      CHAM_GD=TEMPSC,
                      REFERENCE='ANALYTIQUE',
                      VALE_REFE=11.83,
                      VALE_CALC=11.821210635928,
                      PRECISION=1.E-3,),
                   _F(NOEUD='N136',
                      NOM_CMP='TEMP_MIL',
                      CHAM_GD=TEMPSC,
                      REFERENCE='ANALYTIQUE',
                      VALE_REFE=11.83,
                      VALE_CALC=11.82063954552,
                      PRECISION=1.E-3,),
                   _F(NOEUD='N11',
                      NOM_CMP='TEMP_SUP',
                      CHAM_GD=TEMPSC,
                      REFERENCE='ANALYTIQUE',
                      VALE_REFE=-26.700,
                      VALE_CALC=-26.683335508472,
                      PRECISION=6.4E-4,),
                   _F(NOEUD='N11',
                      NOM_CMP='TEMP_INF',
                      CHAM_GD=TEMPSC,
                      REFERENCE='ANALYTIQUE',
                      VALE_REFE=-26.700,
                      VALE_CALC=-26.683335508472,
                      PRECISION=6.4E-4,),
                   _F(NOEUD='N11',
                      NOM_CMP='TEMP_MIL',
                      CHAM_GD=TEMPSC,
                      REFERENCE='ANALYTIQUE',
                      VALE_REFE=-26.700,
                      VALE_CALC=-26.682819218296,
                      PRECISION=1.E-3,),
                   _F(NOEUD='N26',
                      NOM_CMP='TEMP_SUP',
                      CHAM_GD=TEMPSC,
                      REFERENCE='ANALYTIQUE',
                      VALE_REFE=-47.556,
                      VALE_CALC=-47.54820500597,
                      PRECISION=5.E-4,),
                   _F(NOEUD='N26',
                      NOM_CMP='TEMP_INF',
                      CHAM_GD=TEMPSC,
                      REFERENCE='ANALYTIQUE',
                      VALE_REFE=-47.556,
                      VALE_CALC=-47.54820500597,
                      PRECISION=5.E-4,),
                   _F(NOEUD='N26',
                      NOM_CMP='TEMP_MIL',
                      CHAM_GD=TEMPSC,
                      REFERENCE='ANALYTIQUE',
                      VALE_REFE=-47.556,
                      VALE_CALC=-47.548144025103,
                      PRECISION=5.E-4,),
                   ),
          )

# =============================================================

FIN()
#
