# MODIF  DATE 09/04/2013   AUTEUR PELLET J.PELLET 
# TITRE PLAQUE INFINIE SOUMISE A DES FLUX ANTISYMETRIQUES
# tpls100a.para = tps_job 60 mem_job 512Mo ncpus 1 liste_test R
#            CONFIGURATION MANAGEMENT OF EDF VERSION
# ======================================================================
# COPYRIGHT (C) 1991 - 2013  EDF R&D                  WWW.CODE-ASTER.ORG
# THIS PROGRAM IS FREE SOFTWARE; YOU CAN REDISTRIBUTE IT AND/OR MODIFY
# IT UNDER THE TERMS OF THE GNU GENERAL PUBLIC LICENSE AS PUBLISHED BY
# THE FREE SOFTWARE FOUNDATION; EITHER VERSION 2 OF THE LICENSE, OR
# (AT YOUR OPTION) ANY LATER VERSION.
#
# THIS PROGRAM IS DISTRIBUTED IN THE HOPE THAT IT WILL BE USEFUL, BUT
# WITHOUT ANY WARRANTY; WITHOUT EVEN THE IMPLIED WARRANTY OF
# MERCHANTABILITY OR FITNESS FOR A PARTICULAR PURPOSE. SEE THE GNU
# GENERAL PUBLIC LICENSE FOR MORE DETAILS.
#
# YOU SHOULD HAVE RECEIVED A COPY OF THE GNU GENERAL PUBLIC LICENSE
# ALONG WITH THIS PROGRAM; IF NOT, WRITE TO EDF R&D CODE_ASTER,
#    1 AVENUE DU GENERAL DE GAULLE, 92141 CLAMART CEDEX, FRANCE.
# ======================================================================
#
# PLAQUE INFINIE SOUMISE A DES COUPLES DE FLUXS
# ANTISYMETRIQUES (MODELISATION COQUE THERMIQUE TRIA6)
#

DEBUT(CODE=_F(NOM='TPLS100A', NIV_PUB_WEB='INTERNET'), DEBUG=_F(SDVERI='OUI'))

M=LIRE_MAILLAGE(FORMAT='MED', )

M=DEFI_GROUP( reuse=M,   MAILLAGE=M,
              CREA_GROUP_MA=_F(  NOM = 'TOUT', TOUT = 'OUI'))

MO=AFFE_MODELE( MAILLAGE=M,
                AFFE=_F( TOUT = 'OUI',PHENOMENE = 'THERMIQUE',
                         MODELISATION = 'COQUE'))

EPANT=AFFE_CARA_ELEM( MODELE=MO,
                      COQUE=_F( GROUP_MA = 'TOUT',
                                EPAIS = 4.) )

MAANT=DEFI_MATERIAU( THER=_F( RHO_CP = 1.0,LAMBDA = 4.5))

EPANT2=AFFE_CARA_ELEM( MODELE=MO,
                       COQUE=_F( GROUP_MA = 'TOUT',
                                 EPAIS = 4.,
                                 ANGL_REP = (30.,0.,)) )

#
# DEFINITION DU MATERIAU HOMOGENEISE MAANT2 ANALOGUE AU
# MATERIAU ISOTROPE MAANT.
# LES COEFFICIENTS DE CE MATERIAU ONT ETE CALCULES AVEC DES
# POLYNOMES DE LAGRANGE.
#

MAANT2=DEFI_MATERIAU(  THER_COQUE=_F(
   COND_LMM = 9.6,  COND_TMM = 9.6,  COND_LMP = 1.2,   COND_TMP = 1.2,
   COND_LPP = 2.4,  COND_TPP = 2.4,  COND_LSI = -0.6,  COND_TSI = -0.6,
   COND_NMM = 6.0,   COND_NMP = -3.0,  COND_NPP = 2.625,   COND_NSI = 0.375,
   CMAS_MM = 2.133333333,         CMAS_MP = 0.2666666667,
   CMAS_PP = 0.533333333,         CMAS_SI = -0.1333333333)
                          )

CMANT=AFFE_MATERIAU(  MAILLAGE=M, AFFE=_F( TOUT = 'OUI',MATER = MAANT))

CMANT2=AFFE_MATERIAU(  MAILLAGE=M, AFFE=_F( TOUT = 'OUI',MATER = MAANT2))

VAL0=DEFI_CONSTANTE(   VALE=0.)

VAL30=DEFI_CONSTANTE(   VALE=30.)

VALM30=DEFI_CONSTANTE(   VALE=-30.)

CHANTF=AFFE_CHAR_THER_F(  MODELE=MO,
                          TEMP_IMPO=_F( TOUT = 'OUI',TEMP_MIL= VAL0),
                          FLUX_REP=_F( GROUP_MA = 'GRSD2',FLUN_SUP = VAL30,FLUN_INF = VALM30))

TEMPE=THER_LINEAIRE(MODELE=MO,
                    CARA_ELEM=EPANT,
                    CHAM_MATER=CMANT,
                    EXCIT=_F(CHARGE = CHANTF),
                    );

TEMPE=CALC_CHAMP(reuse=TEMPE,
                 RESULTAT=TEMPE,
                 THERMIQUE='FLUX_ELNO',);


ASSEMBLAGE( MODELE=MO,
            CHARGE=CHANTF,
            CARA_ELEM=EPANT2,
            CHAM_MATER=CMANT2,
            NUME_DDL=CO("NUANT2"),
            MATR_ASSE=_F(MATRICE=CO("KA2"),
                         OPTION='RIGI_THER'),
            VECT_ASSE=_F(VECTEUR=CO("FA2"),
                          OPTION='CHAR_THER'),
)


KA2=FACTORISER( reuse=KA2,   MATR_ASSE=KA2)

TEMPA3=RESOUDRE(   MATR=KA2,    CHAM_NO=FA2 )

TEST_RESU(RESU=(_F(NUME_ORDRE=0,
                   RESULTAT=TEMPE,
                   NOM_CHAM='TEMP',
                   NOEUD='N201',
                   NOM_CMP='TEMP_SUP',
                   VALE_CALC=13.331016050039,
                   TOLE_MACHINE=9.0000000000000006E-05,
                   ),
                _F(NUME_ORDRE=0,
                   RESULTAT=TEMPE,
                   NOM_CHAM='TEMP',
                   NOEUD='N176',
                   NOM_CMP='TEMP_SUP',
                   VALE_CALC=13.256407314635,
                   TOLE_MACHINE=7.9999999999999996E-06,
                   ),
                _F(NUME_ORDRE=0,
                   RESULTAT=TEMPE,
                   NOM_CHAM='TEMP',
                   NOEUD='N161',
                   NOM_CMP='TEMP_SUP',
                   VALE_CALC=12.745815090715,
                   TOLE_MACHINE=2.9999999999999997E-4,
                   ),
                _F(NUME_ORDRE=0,
                   RESULTAT=TEMPE,
                   NOM_CHAM='TEMP',
                   NOEUD='N1',
                   NOM_CMP='TEMP_SUP',
                   VALE_CALC=6.6666666666668,
                   TOLE_MACHINE=1.E-4,
                   ),
                _F(NUME_ORDRE=0,
                   RESULTAT=TEMPE,
                   NOM_CHAM='TEMP',
                   NOEUD='N32',
                   NOM_CMP='TEMP_SUP',
                   VALE_CALC=0.58715641008072,
                   TOLE_MACHINE=2.9999999999999997E-4,
                   ),
                _F(NUME_ORDRE=0,
                   RESULTAT=TEMPE,
                   NOM_CHAM='TEMP',
                   NOEUD='N46',
                   NOM_CMP='TEMP_SUP',
                   VALE_CALC=0.076926018698184,
                   VALE_REFE=0.076789999999999997,
                   REFERENCE='ANALYTIQUE',
                   PRECISION=1.8E-3,),
                _F(NUME_ORDRE=0,
                   RESULTAT=TEMPE,
                   NOM_CHAM='FLUX_ELNO',
                   NOEUD='N176',
                   NOM_CMP='FLUX_SUP',
                   VALE_CALC=0.29069214800510,
                   VALE_REFE=0.29920000000000002,
                   REFERENCE='ANALYTIQUE',
                   PRECISION=0.029999999999999999,
                   MAILLE='M297',),
                _F(NUME_ORDRE=0,
                   RESULTAT=TEMPE,
                   NOM_CHAM='FLUX_ELNO',
                   NOEUD='N176',
                   NOM_CMP='FLUX_SUP',
                   VALE_CALC=0.27799245324667,
                   VALE_REFE=0.29920000000000002,
                   REFERENCE='ANALYTIQUE',
                   PRECISION=0.080000000000000002,
                   MAILLE='M289',),
                _F(NUME_ORDRE=0,
                   RESULTAT=TEMPE,
                   NOM_CHAM='FLUX_ELNO',
                   NOEUD='N176',
                   NOM_CMP='FLUX_SUP',
                   VALE_CALC=0.27994158716946,
                   VALE_REFE=0.29920000000000002,
                   REFERENCE='ANALYTIQUE',
                   PRECISION=0.070000000000000007,
                   MAILLE='M290',),
                _F(NUME_ORDRE=0,
                   RESULTAT=TEMPE,
                   NOM_CHAM='FLUX_ELNO',
                   NOEUD='N161',
                   NOM_CMP='FLUX_SUP',
                   VALE_CALC=2.1856256132434,
                   VALE_REFE=2.2869999999999999,
                   REFERENCE='ANALYTIQUE',
                   PRECISION=0.050000000000000003,
                   MAILLE='M265',),
                _F(NUME_ORDRE=0,
                   RESULTAT=TEMPE,
                   NOM_CHAM='FLUX_ELNO',
                   NOEUD='N161',
                   NOM_CMP='FLUX_SUP',
                   VALE_CALC=2.1973624245905,
                   VALE_REFE=2.2869999999999999,
                   REFERENCE='ANALYTIQUE',
                   PRECISION=0.040000000000000001,
                   MAILLE='M266',),
                _F(NUME_ORDRE=0,
                   RESULTAT=TEMPE,
                   NOM_CHAM='FLUX_ELNO',
                   NOEUD='N161',
                   NOM_CMP='FLUX_SUP',
                   VALE_CALC=2.2422260422781,
                   VALE_REFE=2.2869999999999999,
                   REFERENCE='ANALYTIQUE',
                   PRECISION=0.034000000000000002,
                   MAILLE='M273',),
                _F(NUME_ORDRE=0,
                   RESULTAT=TEMPE,
                   NOM_CHAM='FLUX_ELNO',
                   NOEUD='N1',
                   NOM_CMP='FLUX_SUP',
                   VALE_CALC=25.943626817809,
                   VALE_REFE=25.98,
                   REFERENCE='ANALYTIQUE',
                   PRECISION=0.034000000000000002,
                   MAILLE='M1',),
                _F(NUME_ORDRE=0,
                   RESULTAT=TEMPE,
                   NOM_CHAM='FLUX_ELNO',
                   NOEUD='N1',
                   NOM_CMP='FLUX_SUP',
                   VALE_CALC=25.943626817809,
                   VALE_REFE=25.98,
                   REFERENCE='ANALYTIQUE',
                   PRECISION=0.034000000000000002,
                   MAILLE='M225',),
                _F(NUME_ORDRE=0,
                   RESULTAT=TEMPE,
                   NOM_CHAM='FLUX_ELNO',
                   NOEUD='N1',
                   NOM_CMP='FLUX_SUP',
                   VALE_CALC=25.943626817809,
                   VALE_REFE=25.98,
                   REFERENCE='ANALYTIQUE',
                   PRECISION=0.034000000000000002,
                   MAILLE='M337',),
                _F(NUME_ORDRE=0,
                   RESULTAT=TEMPE,
                   NOM_CHAM='FLUX_ELNO',
                   NOEUD='N176',
                   NOM_CMP='FLUX_INF',
                   VALE_CALC=-0.29069214800510,
                   VALE_REFE=-0.29920000000000002,
                   REFERENCE='ANALYTIQUE',
                   PRECISION=0.029999999999999999,
                   MAILLE='M297',),
                _F(NUME_ORDRE=0,
                   RESULTAT=TEMPE,
                   NOM_CHAM='FLUX_ELNO',
                   NOEUD='N176',
                   NOM_CMP='FLUX_INF',
                   VALE_CALC=-0.27799245324667,
                   VALE_REFE=-0.29920000000000002,
                   REFERENCE='ANALYTIQUE',
                   PRECISION=0.080000000000000002,
                   MAILLE='M289',),
                _F(NUME_ORDRE=0,
                   RESULTAT=TEMPE,
                   NOM_CHAM='FLUX_ELNO',
                   NOEUD='N176',
                   NOM_CMP='FLUX_INF',
                   VALE_CALC=-0.27994158716946,
                   VALE_REFE=-0.29920000000000002,
                   REFERENCE='ANALYTIQUE',
                   PRECISION=0.070000000000000007,
                   MAILLE='M290',),
                _F(NUME_ORDRE=0,
                   RESULTAT=TEMPE,
                   NOM_CHAM='FLUX_ELNO',
                   NOEUD='N161',
                   NOM_CMP='FLUX_INF',
                   VALE_CALC=-2.1856256132434,
                   VALE_REFE=-2.2869999999999999,
                   REFERENCE='ANALYTIQUE',
                   PRECISION=0.050000000000000003,
                   MAILLE='M265',),
                _F(NUME_ORDRE=0,
                   RESULTAT=TEMPE,
                   NOM_CHAM='FLUX_ELNO',
                   NOEUD='N161',
                   NOM_CMP='FLUX_INF',
                   VALE_CALC=-2.1973624245905,
                   VALE_REFE=-2.2869999999999999,
                   REFERENCE='ANALYTIQUE',
                   PRECISION=0.040000000000000001,
                   MAILLE='M266',),
                _F(NUME_ORDRE=0,
                   RESULTAT=TEMPE,
                   NOM_CHAM='FLUX_ELNO',
                   NOEUD='N161',
                   NOM_CMP='FLUX_INF',
                   VALE_CALC=-2.2422260422781,
                   VALE_REFE=-2.2869999999999999,
                   REFERENCE='ANALYTIQUE',
                   PRECISION=0.034000000000000002,
                   MAILLE='M273',),
                _F(NUME_ORDRE=0,
                   RESULTAT=TEMPE,
                   NOM_CHAM='FLUX_ELNO',
                   NOEUD='N1',
                   NOM_CMP='FLUX_INF',
                   VALE_CALC=-25.943626817809,
                   VALE_REFE=-25.98,
                   REFERENCE='ANALYTIQUE',
                   PRECISION=0.034000000000000002,
                   MAILLE='M1',),
                _F(NUME_ORDRE=0,
                   RESULTAT=TEMPE,
                   NOM_CHAM='FLUX_ELNO',
                   NOEUD='N1',
                   NOM_CMP='FLUX_INF',
                   VALE_CALC=-25.943626817809,
                   VALE_REFE=-25.98,
                   REFERENCE='ANALYTIQUE',
                   PRECISION=0.034000000000000002,
                   MAILLE='M225',),
                _F(NUME_ORDRE=0,
                   RESULTAT=TEMPE,
                   NOM_CHAM='FLUX_ELNO',
                   NOEUD='N1',
                   NOM_CMP='FLUX_INF',
                   VALE_CALC=-25.943626817809,
                   VALE_REFE=-25.98,
                   REFERENCE='ANALYTIQUE',
                   PRECISION=0.034000000000000002,
                   MAILLE='M337',),
                ),
          CHAM_NO=(_F(NOEUD='N201',
                      NOM_CMP='TEMP_SUP',
                      CHAM_GD=TEMPA3,
                      VALE_CALC=13.331016050039,
                      TOLE_MACHINE=9.0000000000000006E-05,),
                   _F(NOEUD='N176',
                      NOM_CMP='TEMP_SUP',
                      CHAM_GD=TEMPA3,
                      VALE_CALC=13.256407314635,
                      TOLE_MACHINE=7.9999999999999996E-06,),
                   _F(NOEUD='N161',
                      NOM_CMP='TEMP_SUP',
                      CHAM_GD=TEMPA3,
                      VALE_CALC=12.745815090715,
                      TOLE_MACHINE=2.9999999999999997E-4,),
                   _F(NOEUD='N1',
                      NOM_CMP='TEMP_SUP',
                      CHAM_GD=TEMPA3,
                      VALE_CALC=6.6666666666668,
                      TOLE_MACHINE=1.E-4,),
                   _F(NOEUD='N32',
                      NOM_CMP='TEMP_SUP',
                      CHAM_GD=TEMPA3,
                      VALE_CALC=0.58715641008072,
                      TOLE_MACHINE=2.9999999999999997E-4,),
                   _F(NOEUD='N46',
                      NOM_CMP='TEMP_SUP',
                      PRECISION=1.8E-3,
                      CHAM_GD=TEMPA3,
                      VALE_CALC=0.076926018698184,
                      VALE_REFE=0.076789999999999997,
                      REFERENCE='ANALYTIQUE',),
                   ),
          )

# MEME CAS TEST AVEC THER_LINEAIRE


CHANT=AFFE_CHAR_THER(  MODELE=MO,
                       TEMP_IMPO=_F( TOUT = 'OUI',TEMP_MIL= 0.),
                       FLUX_REP=_F( GROUP_MA = 'GRSD2',FLUN_SUP = 30., FLUN_INF = -30.))

TEMPA2=THER_LINEAIRE(  MODELE=MO,
                       CHAM_MATER=CMANT2,    CARA_ELEM=EPANT2,
                       EXCIT=_F(  CHARGE = CHANT) )


LR8=DEFI_LIST_REEL(  DEBUT=0.,
                     INTERVALLE=_F(  JUSQU_A = 1., NOMBRE = 20)
                       )

TEMPA4=THER_LINEAIRE(
               MODELE=MO,
          INCREMENT=_F( LIST_INST = LR8),
               CHAM_MATER=CMANT2,    CARA_ELEM=EPANT2,
              EXCIT=_F(  CHARGE = CHANT) )

TEST_RESU(RESU=(_F(NUME_ORDRE=0,
                   RESULTAT=TEMPA2,
                   NOM_CHAM='TEMP',
                   NOEUD='N201',
                   NOM_CMP='TEMP_SUP',
                   VALE_CALC=13.332100000000001,
                   TOLE_MACHINE=9.0000000000000006E-05,
                   ),
                _F(NUME_ORDRE=0,
                   RESULTAT=TEMPA2,
                   NOM_CHAM='TEMP',
                   NOEUD='N176',
                   NOM_CMP='TEMP_SUP',
                   VALE_CALC=13.256500000000001,
                   TOLE_MACHINE=7.9999999999999996E-06,
                   ),
                _F(NUME_ORDRE=0,
                   RESULTAT=TEMPA2,
                   NOM_CHAM='TEMP',
                   NOEUD='N161',
                   NOM_CMP='TEMP_SUP',
                   VALE_CALC=12.7462,
                   TOLE_MACHINE=2.9999999999999997E-4,
                   ),
                _F(NUME_ORDRE=0,
                   RESULTAT=TEMPA2,
                   NOM_CHAM='TEMP',
                   NOEUD='N1',
                   NOM_CMP='TEMP_SUP',
                   VALE_CALC=6.6665999999999999,
                   TOLE_MACHINE=1.E-4,
                   ),
                _F(NUME_ORDRE=0,
                   RESULTAT=TEMPA2,
                   NOM_CHAM='TEMP',
                   NOEUD='N32',
                   NOM_CMP='TEMP_SUP',
                   VALE_CALC=0.58699999999999997,
                   TOLE_MACHINE=2.9999999999999997E-4,
                   ),
                _F(NUME_ORDRE=0,
                   RESULTAT=TEMPA2,
                   NOM_CHAM='TEMP',
                   NOEUD='N46',
                   NOM_CMP='TEMP_SUP',
                   VALE_CALC=0.076926019,
                   VALE_REFE=0.076789999999999997,
                   REFERENCE='ANALYTIQUE',
                   PRECISION=1.8E-3,),
                _F(NUME_ORDRE=20,
                   RESULTAT=TEMPA4,
                   NOM_CHAM='TEMP',
                   NOEUD='N201',
                   NOM_CMP='TEMP_SUP',
                   VALE_CALC=13.332100000000001,
                   TOLE_MACHINE=9.0000000000000006E-05,
                   ),
                _F(NUME_ORDRE=20,
                   RESULTAT=TEMPA4,
                   NOM_CHAM='TEMP',
                   NOEUD='N176',
                   NOM_CMP='TEMP_SUP',
                   VALE_CALC=13.256500000000001,
                   TOLE_MACHINE=7.9999999999999996E-06,
                   ),
                _F(NUME_ORDRE=20,
                   RESULTAT=TEMPA4,
                   NOM_CHAM='TEMP',
                   NOEUD='N161',
                   NOM_CMP='TEMP_SUP',
                   VALE_CALC=12.7462,
                   TOLE_MACHINE=2.9999999999999997E-4,
                   ),
                _F(NUME_ORDRE=20,
                   RESULTAT=TEMPA4,
                   NOM_CHAM='TEMP',
                   NOEUD='N1',
                   NOM_CMP='TEMP_SUP',
                   VALE_CALC=6.6665999999999999,
                   TOLE_MACHINE=1.E-4,
                   ),
                _F(NUME_ORDRE=20,
                   RESULTAT=TEMPA4,
                   NOM_CHAM='TEMP',
                   NOEUD='N32',
                   NOM_CMP='TEMP_SUP',
                   VALE_CALC=0.58699999999999997,
                   TOLE_MACHINE=2.9999999999999997E-4,
                   ),
                _F(NUME_ORDRE=20,
                   RESULTAT=TEMPA4,
                   NOM_CHAM='TEMP',
                   NOEUD='N46',
                   NOM_CMP='TEMP_SUP',
                   VALE_CALC=0.076926019,
                   VALE_REFE=0.076789999999999997,
                   REFERENCE='ANALYTIQUE',
                   PRECISION=1.8E-3,),
                ),
          )

# MEME TEST AVEC LA CHARGE DEFINIE PAR AFFE_CHAR_THER_F


FIN()
#
