# ======================================================================
# COPYRIGHT (C) 1991 - 2016  EDF R&D                  WWW.CODE-ASTER.ORG
# THIS PROGRAM IS FREE SOFTWARE; YOU CAN REDISTRIBUTE IT AND/OR MODIFY
# IT UNDER THE TERMS OF THE GNU GENERAL PUBLIC LICENSE AS PUBLISHED BY
# THE FREE SOFTWARE FOUNDATION; EITHER VERSION 2 OF THE LICENSE, OR
# (AT YOUR OPTION) ANY LATER VERSION.
#
# THIS PROGRAM IS DISTRIBUTED IN THE HOPE THAT IT WILL BE USEFUL, BUT
# WITHOUT ANY WARRANTY; WITHOUT EVEN THE IMPLIED WARRANTY OF
# MERCHANTABILITY OR FITNESS FOR A PARTICULAR PURPOSE. SEE THE GNU
# GENERAL PUBLIC LICENSE FOR MORE DETAILS.
#
# YOU SHOULD HAVE RECEIVED A COPY OF THE GNU GENERAL PUBLIC LICENSE
# ALONG WITH THIS PROGRAM; IF NOT, WRITE TO EDF R&D CODE_ASTER,
#    1 AVENUE DU GENERAL DE GAULLE, 92141 CLAMART CEDEX, FRANCE.
# ======================================================================
#
#               MODELISATION QUAD4
#
# TROIS CALCULS : AFFE_CHAR_THER   AVEC LAGRANGES,
#                 AFFE_CHAR_THER_F AVEC LAGRANGES,
#                 AFFE_CHAR_THER_F AVEC CHAR_CINE
#

DEBUT(CODE=_F(NIV_PUB_WEB='INTERNET'),DEBUG=_F(SDVERI='OUI'))

M=LIRE_MAILLAGE(FORMAT='MED',  )

M=DEFI_GROUP( reuse=M,   MAILLAGE=M,
  CREA_GROUP_MA=_F(  NOM = 'TOUT', TOUT = 'OUI'))

MO=AFFE_MODELE(
                       MAILLAGE=M,
                      AFFE=_F( TOUT = 'OUI',PHENOMENE = 'THERMIQUE',
                                      MODELISATION = 'COQUE'))

EPSYM=AFFE_CARA_ELEM( MODELE=MO,
                           COQUE=_F(
       GROUP_MA = 'TOUT',
EPAIS = 0.01) )

MASYM=DEFI_MATERIAU( THER=_F( RHO_CP = 1.0,LAMBDA = 1000.))

CMSYM=AFFE_MATERIAU(  MAILLAGE=M, AFFE=_F( TOUT = 'OUI',MATER = MASYM))

# =============================================================
# TEST DANS LE CAS D'UNE CHARGE DEFINIE PAR AFFE_CHAR_THER
# =============================================================

CHSYM=AFFE_CHAR_THER(
       MODELE=MO,
      TEMP_IMPO=_F( NOEUD = 'NO000423', TEMP_SUP = 0., TEMP_MIL= 0., TEMP_INF = 0.),ECHANGE=(
       _F( GROUP_MA = 'GRSD1', COEF_H_INF = 10., TEMP_EXT_INF = -50.,
                               COEF_H_SUP = 10., TEMP_EXT_SUP = -50.),
               _F( GROUP_MA = 'GRSD2', COEF_H_INF = 10., TEMP_EXT_INF = 50.,
                               COEF_H_SUP = 10., TEMP_EXT_SUP = 50.)))

MESYM=CALC_MATR_ELEM(
                    MODELE=MO,CHARGE=CHSYM,CHAM_MATER=CMSYM,
                      CARA_ELEM=EPSYM, OPTION='RIGI_THER'    )

VESYM=CALC_VECT_ELEM(  CHARGE=CHSYM,
                            OPTION='CHAR_THER' )

NUSYM=NUME_DDL(   MATR_RIGI=MESYM )

KS=ASSE_MATRICE(   MATR_ELEM=MESYM,   NUME_DDL=NUSYM )

FS=ASSE_VECTEUR(   VECT_ELEM=VESYM, NUME_DDL=NUSYM  )

KS=FACTORISER( reuse=KS,   MATR_ASSE=KS)

TEMPS=RESOUDRE(    MATR=KS,    CHAM_NO=FS )

TEST_RESU(CHAM_NO=(_F(NOEUD='NO000387',
                      NOM_CMP='TEMP_SUP',
                      CHAM_GD=TEMPS,
                      VALE_CALC=49.999944850242,
                      VALE_REFE=49.999,
                      PRECISION=1.E-4,
                      REFERENCE='ANALYTIQUE',),
                   _F(NOEUD='NO000387',
                      NOM_CMP='TEMP_MIL',
                      CHAM_GD=TEMPS,
                      VALE_CALC=49.999944848863,
                      VALE_REFE=49.999,
                      PRECISION=1.E-4,
                      REFERENCE='ANALYTIQUE',),
                   _F(NOEUD='NO000387',
                      NOM_CMP='TEMP_INF',
                      CHAM_GD=TEMPS,
                      VALE_CALC=49.999944850242,
                      VALE_REFE=49.999,
                      PRECISION=1.E-4,
                      REFERENCE='ANALYTIQUE',),
                   _F(NOEUD='NO000397',
                      NOM_CMP='TEMP_SUP',
                      CHAM_GD=TEMPS,
                      VALE_CALC=49.966895485706,
                      VALE_REFE=49.9658,
                      PRECISION=1.E-4,
                      REFERENCE='ANALYTIQUE',),
                   _F(NOEUD='NO000397',
                      NOM_CMP='TEMP_MIL',
                      CHAM_GD=TEMPS,
                      VALE_CALC=49.96689465809,
                      VALE_REFE=49.9658,
                      PRECISION=1.E-4,
                      REFERENCE='ANALYTIQUE',),
                   _F(NOEUD='NO000397',
                      NOM_CMP='TEMP_INF',
                      CHAM_GD=TEMPS,
                      VALE_CALC=49.966895485706,
                      VALE_REFE=49.9658,
                      PRECISION=1.E-4,
                      REFERENCE='ANALYTIQUE',),
                   _F(NOEUD='NO000401',
                      NOM_CMP='TEMP_SUP',
                      CHAM_GD=TEMPS,
                      VALE_CALC=49.891274774051,
                      VALE_REFE=49.8888,
                      PRECISION=1.E-4,
                      REFERENCE='ANALYTIQUE',),
                   _F(NOEUD='NO000401',
                      NOM_CMP='TEMP_MIL',
                      CHAM_GD=TEMPS,
                      VALE_CALC=49.891272055911,
                      VALE_REFE=49.8888,
                      PRECISION=1.E-4,
                      REFERENCE='ANALYTIQUE',),
                   _F(NOEUD='NO000401',
                      NOM_CMP='TEMP_INF',
                      CHAM_GD=TEMPS,
                      VALE_CALC=49.891274774051,
                      VALE_REFE=49.8888,
                      PRECISION=1.E-4,
                      REFERENCE='ANALYTIQUE',),
                   _F(NOEUD='NO000405',
                      NOM_CMP='TEMP_SUP',
                      CHAM_GD=TEMPS,
                      VALE_CALC=49.666083478717,
                      VALE_REFE=49.6631,
                      PRECISION=1.E-4,
                      REFERENCE='ANALYTIQUE',),
                   _F(NOEUD='NO000405',
                      NOM_CMP='TEMP_MIL',
                      CHAM_GD=TEMPS,
                      VALE_CALC=49.666075130776,
                      VALE_REFE=49.6631,
                      PRECISION=1.E-4,
                      REFERENCE='ANALYTIQUE',),
                   _F(NOEUD='NO000405',
                      NOM_CMP='TEMP_INF',
                      CHAM_GD=TEMPS,
                      VALE_CALC=49.666083478717,
                      VALE_REFE=49.6631,
                      PRECISION=1.E-4,
                      REFERENCE='ANALYTIQUE',),
                   _F(NOEUD='NO000409',
                      NOM_CMP='TEMP_SUP',
                      CHAM_GD=TEMPS,
                      VALE_CALC=49.059440801271,
                      VALE_REFE=49.0542,
                      PRECISION=1.2E-4,
                      REFERENCE='ANALYTIQUE',),
                   _F(NOEUD='NO000409',
                      NOM_CMP='TEMP_MIL',
                      CHAM_GD=TEMPS,
                      VALE_CALC=49.059417287225,
                      VALE_REFE=49.0542,
                      PRECISION=1.2E-4,
                      REFERENCE='ANALYTIQUE',),
                   _F(NOEUD='NO000409',
                      NOM_CMP='TEMP_INF',
                      CHAM_GD=TEMPS,
                      VALE_CALC=49.059440801271,
                      VALE_REFE=49.0542,
                      PRECISION=1.2E-4,
                      REFERENCE='ANALYTIQUE',),
                   _F(NOEUD='NO000412',
                      NOM_CMP='TEMP_SUP',
                      CHAM_GD=TEMPS,
                      VALE_CALC=47.5656630732,
                      VALE_REFE=47.556,
                      PRECISION=2.1E-4,
                      REFERENCE='ANALYTIQUE',),
                   _F(NOEUD='NO000412',
                      NOM_CMP='TEMP_MIL',
                      CHAM_GD=TEMPS,
                      VALE_CALC=47.565602213992,
                      VALE_REFE=47.556,
                      PRECISION=2.1E-4,
                      REFERENCE='ANALYTIQUE',),
                   _F(NOEUD='NO000412',
                      NOM_CMP='TEMP_INF',
                      CHAM_GD=TEMPS,
                      VALE_CALC=47.5656630732,
                      VALE_REFE=47.556,
                      PRECISION=2.1E-4,
                      REFERENCE='ANALYTIQUE',),
                   _F(NOEUD='NO000420',
                      NOM_CMP='TEMP_SUP',
                      PRECISION=2.1E-3,
                      CHAM_GD=TEMPS,
                      VALE_CALC=26.755857115436,
                      VALE_REFE=26.70,
                      REFERENCE='ANALYTIQUE',),
                   _F(NOEUD='NO000420',
                      NOM_CMP='TEMP_MIL',
                      PRECISION=2.1E-3,
                      CHAM_GD=TEMPS,
                      VALE_CALC=26.755252670408,
                      VALE_REFE=26.70,
                      REFERENCE='ANALYTIQUE',),
                   _F(NOEUD='NO000420',
                      NOM_CMP='TEMP_INF',
                      PRECISION=2.1E-3,
                      CHAM_GD=TEMPS,
                      VALE_CALC=26.755857115436,
                      VALE_REFE=26.70,
                      REFERENCE='ANALYTIQUE',),
                   _F(NOEUD='NO000422',
                      NOM_CMP='TEMP_SUP',
                      PRECISION=2.E-3,
                      CHAM_GD=TEMPS,
                      VALE_CALC=11.811891593797,
                      VALE_REFE=11.83,
                      REFERENCE='ANALYTIQUE',),
                   _F(NOEUD='NO000422',
                      NOM_CMP='TEMP_MIL',
                      PRECISION=2.E-3,
                      CHAM_GD=TEMPS,
                      VALE_CALC=11.810589485753,
                      VALE_REFE=11.83,
                      REFERENCE='ANALYTIQUE',),
                   _F(NOEUD='NO000422',
                      NOM_CMP='TEMP_INF',
                      PRECISION=2.E-3,
                      CHAM_GD=TEMPS,
                      VALE_CALC=11.811891593797,
                      VALE_REFE=11.83,
                      REFERENCE='ANALYTIQUE',),
                   _F(NOEUD='NO000426',
                      NOM_CMP='TEMP_SUP',
                      PRECISION=2.1E-3,
                      CHAM_GD=TEMPS,
                      VALE_CALC=-26.75585711546,
                      VALE_REFE=-26.70,
                      REFERENCE='ANALYTIQUE',),
                   _F(NOEUD='NO000426',
                      NOM_CMP='TEMP_MIL',
                      PRECISION=2.1E-3,
                      CHAM_GD=TEMPS,
                      VALE_CALC=-26.755252670433,
                      VALE_REFE=-26.70,
                      REFERENCE='ANALYTIQUE',),
                   _F(NOEUD='NO000426',
                      NOM_CMP='TEMP_INF',
                      PRECISION=2.1E-3,
                      CHAM_GD=TEMPS,
                      VALE_CALC=-26.75585711546,
                      VALE_REFE=-26.70,
                      REFERENCE='ANALYTIQUE',),
                   _F(NOEUD='NO000434',
                      NOM_CMP='TEMP_SUP',
                      PRECISION=2.1E-3,
                      CHAM_GD=TEMPS,
                      VALE_CALC=-47.565663073169,
                      VALE_REFE=-47.556,
                      REFERENCE='ANALYTIQUE',),
                   _F(NOEUD='NO000434',
                      NOM_CMP='TEMP_MIL',
                      PRECISION=2.1E-3,
                      CHAM_GD=TEMPS,
                      VALE_CALC=-47.565602213961,
                      VALE_REFE=-47.556,
                      REFERENCE='ANALYTIQUE',),
                   _F(NOEUD='NO000434',
                      NOM_CMP='TEMP_INF',
                      PRECISION=2.1E-3,
                      CHAM_GD=TEMPS,
                      VALE_CALC=-47.565663073169,
                      VALE_REFE=-47.556,
                      REFERENCE='ANALYTIQUE',),
                   ),
          )

# =============================================================
# TEST DANS LE CAS D'UNE CHARGE DEFINIE PAR AFFE_CHAR_THER_F
# =============================================================

VAL0=DEFI_CONSTANTE( VALE=0.)

VAL10=DEFI_CONSTANTE( VALE=10.)

VAL50=DEFI_CONSTANTE(  VALE=50.)

VALM50=DEFI_CONSTANTE( VALE=-50.)

CHSYMF=AFFE_CHAR_THER_F(
       MODELE=MO,
      TEMP_IMPO=_F( NOEUD = 'NO000423', TEMP_SUP = VAL0, TEMP_MIL= VAL0, TEMP_INF = VAL0),ECHANGE=(
       _F( GROUP_MA = 'GRSD1', COEF_H_INF = VAL10, TEMP_EXT_INF = VALM50,
                               COEF_H_SUP = VAL10, TEMP_EXT_SUP = VALM50),
               _F( GROUP_MA = 'GRSD2', COEF_H_INF = VAL10, TEMP_EXT_INF = VAL50,
                               COEF_H_SUP = VAL10, TEMP_EXT_SUP = VAL50)))

MESYMF=CALC_MATR_ELEM(
                    MODELE=MO,CHARGE=CHSYMF,CHAM_MATER=CMSYM,
                      CARA_ELEM=EPSYM, OPTION='RIGI_THER'    )

VESYMF=CALC_VECT_ELEM(  CHARGE=CHSYMF,
                            OPTION='CHAR_THER' )

NUSYMF=NUME_DDL(   MATR_RIGI=MESYMF )

KSF=ASSE_MATRICE(   MATR_ELEM=MESYMF,   NUME_DDL=NUSYMF )

FSF=ASSE_VECTEUR(   VECT_ELEM=VESYMF, NUME_DDL=NUSYMF  )

KSF=FACTORISER( reuse=KSF,   MATR_ASSE=KSF)

TEMPSF=RESOUDRE(    MATR=KSF,    CHAM_NO=FSF )

TEST_RESU(CHAM_NO=(_F(NOEUD='NO000387',
                      NOM_CMP='TEMP_SUP',
                      CHAM_GD=TEMPSF,
                      VALE_CALC=49.999944850242,
                      VALE_REFE=49.999,
                      PRECISION=1.E-4,
                      REFERENCE='ANALYTIQUE',),
                   _F(NOEUD='NO000387',
                      NOM_CMP='TEMP_MIL',
                      CHAM_GD=TEMPSF,
                      VALE_CALC=49.999944848863,
                      VALE_REFE=49.999,
                      PRECISION=1.E-4,
                      REFERENCE='ANALYTIQUE',),
                   _F(NOEUD='NO000387',
                      NOM_CMP='TEMP_INF',
                      CHAM_GD=TEMPSF,
                      VALE_CALC=49.999944850242,
                      VALE_REFE=49.999,
                      PRECISION=1.E-4,
                      REFERENCE='ANALYTIQUE',),
                   _F(NOEUD='NO000397',
                      NOM_CMP='TEMP_SUP',
                      CHAM_GD=TEMPSF,
                      VALE_CALC=49.966895485706,
                      VALE_REFE=49.9658,
                      PRECISION=1.E-4,
                      REFERENCE='ANALYTIQUE',),
                   _F(NOEUD='NO000397',
                      NOM_CMP='TEMP_MIL',
                      CHAM_GD=TEMPSF,
                      VALE_CALC=49.96689465809,
                      VALE_REFE=49.9658,
                      PRECISION=1.E-4,
                      REFERENCE='ANALYTIQUE',),
                   _F(NOEUD='NO000397',
                      NOM_CMP='TEMP_INF',
                      CHAM_GD=TEMPSF,
                      VALE_CALC=49.966895485706,
                      VALE_REFE=49.9658,
                      PRECISION=1.E-4,
                      REFERENCE='ANALYTIQUE',),
                   _F(NOEUD='NO000401',
                      NOM_CMP='TEMP_SUP',
                      CHAM_GD=TEMPSF,
                      VALE_CALC=49.891274774051,
                      VALE_REFE=49.8888,
                      PRECISION=1.E-4,
                      REFERENCE='ANALYTIQUE',),
                   _F(NOEUD='NO000401',
                      NOM_CMP='TEMP_MIL',
                      CHAM_GD=TEMPSF,
                      VALE_CALC=49.891272055911,
                      VALE_REFE=49.8888,
                      PRECISION=1.E-4,
                      REFERENCE='ANALYTIQUE',),
                   _F(NOEUD='NO000401',
                      NOM_CMP='TEMP_INF',
                      CHAM_GD=TEMPSF,
                      VALE_CALC=49.891274774051,
                      VALE_REFE=49.8888,
                      PRECISION=1.E-4,
                      REFERENCE='ANALYTIQUE',),
                   _F(NOEUD='NO000405',
                      NOM_CMP='TEMP_SUP',
                      CHAM_GD=TEMPSF,
                      VALE_CALC=49.666083478717,
                      VALE_REFE=49.6631,
                      PRECISION=1.E-4,
                      REFERENCE='ANALYTIQUE',),
                   _F(NOEUD='NO000405',
                      NOM_CMP='TEMP_MIL',
                      CHAM_GD=TEMPSF,
                      VALE_CALC=49.666075130776,
                      VALE_REFE=49.6631,
                      PRECISION=1.E-4,
                      REFERENCE='ANALYTIQUE',),
                   _F(NOEUD='NO000405',
                      NOM_CMP='TEMP_INF',
                      CHAM_GD=TEMPSF,
                      VALE_CALC=49.666083478717,
                      VALE_REFE=49.6631,
                      PRECISION=1.E-4,
                      REFERENCE='ANALYTIQUE',),
                   _F(NOEUD='NO000409',
                      NOM_CMP='TEMP_SUP',
                      CHAM_GD=TEMPSF,
                      VALE_CALC=49.059440801271,
                      VALE_REFE=49.0542,
                      PRECISION=1.2E-4,
                      REFERENCE='ANALYTIQUE',),
                   _F(NOEUD='NO000409',
                      NOM_CMP='TEMP_MIL',
                      CHAM_GD=TEMPSF,
                      VALE_CALC=49.059417287225,
                      VALE_REFE=49.0542,
                      PRECISION=1.2E-4,
                      REFERENCE='ANALYTIQUE',),
                   _F(NOEUD='NO000409',
                      NOM_CMP='TEMP_INF',
                      CHAM_GD=TEMPSF,
                      VALE_CALC=49.059440801271,
                      VALE_REFE=49.0542,
                      PRECISION=1.2E-4,
                      REFERENCE='ANALYTIQUE',),
                   _F(NOEUD='NO000412',
                      NOM_CMP='TEMP_SUP',
                      CHAM_GD=TEMPSF,
                      VALE_CALC=47.5656630732,
                      VALE_REFE=47.556,
                      PRECISION=2.1E-4,
                      REFERENCE='ANALYTIQUE',),
                   _F(NOEUD='NO000412',
                      NOM_CMP='TEMP_MIL',
                      CHAM_GD=TEMPSF,
                      VALE_CALC=47.565602213992,
                      VALE_REFE=47.556,
                      PRECISION=2.1E-4,
                      REFERENCE='ANALYTIQUE',),
                   _F(NOEUD='NO000412',
                      NOM_CMP='TEMP_INF',
                      CHAM_GD=TEMPSF,
                      VALE_CALC=47.5656630732,
                      VALE_REFE=47.556,
                      PRECISION=2.1E-4,
                      REFERENCE='ANALYTIQUE',),
                   _F(NOEUD='NO000420',
                      NOM_CMP='TEMP_SUP',
                      PRECISION=2.1E-3,
                      CHAM_GD=TEMPSF,
                      VALE_CALC=26.755857115436,
                      VALE_REFE=26.70,
                      REFERENCE='ANALYTIQUE',),
                   _F(NOEUD='NO000420',
                      NOM_CMP='TEMP_MIL',
                      PRECISION=2.1E-3,
                      CHAM_GD=TEMPSF,
                      VALE_CALC=26.755252670408,
                      VALE_REFE=26.70,
                      REFERENCE='ANALYTIQUE',),
                   _F(NOEUD='NO000420',
                      NOM_CMP='TEMP_INF',
                      PRECISION=2.1E-3,
                      CHAM_GD=TEMPSF,
                      VALE_CALC=26.755857115436,
                      VALE_REFE=26.70,
                      REFERENCE='ANALYTIQUE',),
                   _F(NOEUD='NO000422',
                      NOM_CMP='TEMP_SUP',
                      PRECISION=2.E-3,
                      CHAM_GD=TEMPSF,
                      VALE_CALC=11.811891593797,
                      VALE_REFE=11.83,
                      REFERENCE='ANALYTIQUE',),
                   _F(NOEUD='NO000422',
                      NOM_CMP='TEMP_MIL',
                      PRECISION=2.E-3,
                      CHAM_GD=TEMPSF,
                      VALE_CALC=11.810589485753,
                      VALE_REFE=11.83,
                      REFERENCE='ANALYTIQUE',),
                   _F(NOEUD='NO000422',
                      NOM_CMP='TEMP_INF',
                      PRECISION=2.E-3,
                      CHAM_GD=TEMPSF,
                      VALE_CALC=11.811891593797,
                      VALE_REFE=11.83,
                      REFERENCE='ANALYTIQUE',),
                   _F(NOEUD='NO000426',
                      NOM_CMP='TEMP_SUP',
                      PRECISION=2.1E-3,
                      CHAM_GD=TEMPSF,
                      VALE_CALC=-26.75585711546,
                      VALE_REFE=-26.70,
                      REFERENCE='ANALYTIQUE',),
                   _F(NOEUD='NO000426',
                      NOM_CMP='TEMP_MIL',
                      PRECISION=2.1E-3,
                      CHAM_GD=TEMPSF,
                      VALE_CALC=-26.755252670433,
                      VALE_REFE=-26.70,
                      REFERENCE='ANALYTIQUE',),
                   _F(NOEUD='NO000426',
                      NOM_CMP='TEMP_INF',
                      PRECISION=2.1E-3,
                      CHAM_GD=TEMPSF,
                      VALE_CALC=-26.75585711546,
                      VALE_REFE=-26.70,
                      REFERENCE='ANALYTIQUE',),
                   _F(NOEUD='NO000434',
                      NOM_CMP='TEMP_SUP',
                      PRECISION=2.1E-3,
                      CHAM_GD=TEMPSF,
                      VALE_CALC=-47.565663073169,
                      VALE_REFE=-47.556,
                      REFERENCE='ANALYTIQUE',),
                   _F(NOEUD='NO000434',
                      NOM_CMP='TEMP_MIL',
                      PRECISION=2.1E-3,
                      CHAM_GD=TEMPSF,
                      VALE_CALC=-47.565602213961,
                      VALE_REFE=-47.556,
                      REFERENCE='ANALYTIQUE',),
                   _F(NOEUD='NO000434',
                      NOM_CMP='TEMP_INF',
                      PRECISION=2.1E-3,
                      CHAM_GD=TEMPSF,
                      VALE_CALC=-47.565663073169,
                      VALE_REFE=-47.556,
                      REFERENCE='ANALYTIQUE',),
                   ),
          )

# =============================================================
# TEST DANS LE CAS D'UNE CHARGE DEFINIE PAR AFFE_CHAR_THER
#                                        ET CHAR_CINE
# =============================================================

CHSYMC=AFFE_CHAR_THER(
       MODELE=MO,ECHANGE=(
       _F( GROUP_MA = 'GRSD1', COEF_H_INF = 10., TEMP_EXT_INF = -50.,
                               COEF_H_SUP = 10., TEMP_EXT_SUP = -50.),
               _F( GROUP_MA = 'GRSD2', COEF_H_INF = 10., TEMP_EXT_INF = 50.,
                               COEF_H_SUP = 10., TEMP_EXT_SUP = 50.)))

CHCINE=AFFE_CHAR_CINE(
       MODELE=MO,
      THER_IMPO=_F( NOEUD = 'NO000423', TEMP_SUP = 0., TEMP_MIL= 0., TEMP_INF = 0.))

MESYMC=CALC_MATR_ELEM(
                    MODELE=MO,CHARGE=CHSYMC,CHAM_MATER=CMSYM,
                      CARA_ELEM=EPSYM, OPTION='RIGI_THER'    )

VESYMC=CALC_VECT_ELEM(  CHARGE=CHSYMC,
                            OPTION='CHAR_THER' )

NUSYMC=NUME_DDL(   MATR_RIGI=MESYMC )

KSC=ASSE_MATRICE(   MATR_ELEM=MESYMC,   NUME_DDL=NUSYMC,
                           CHAR_CINE=CHCINE                     )

VCINE=CALC_CHAR_CINE(   NUME_DDL=NUSYMC,  CHAR_CINE=CHCINE)

FSC=ASSE_VECTEUR(   VECT_ELEM=VESYMC, NUME_DDL=NUSYMC  )

KSC=FACTORISER( reuse=KSC,   MATR_ASSE=KSC)

TEMPSC=RESOUDRE(    MATR=KSC,   CHAM_NO=FSC,  CHAM_CINE=VCINE)

TEST_RESU(CHAM_NO=(_F(NOEUD='NO000387',
                      NOM_CMP='TEMP_SUP',
                      CHAM_GD=TEMPSC,
                      VALE_CALC=49.999944850242,
                      VALE_REFE=49.999,
                      PRECISION=1.E-4,
                      REFERENCE='ANALYTIQUE',),
                   _F(NOEUD='NO000387',
                      NOM_CMP='TEMP_MIL',
                      CHAM_GD=TEMPSC,
                      VALE_CALC=49.999944848863,
                      VALE_REFE=49.999,
                      PRECISION=1.E-4,
                      REFERENCE='ANALYTIQUE',),
                   _F(NOEUD='NO000387',
                      NOM_CMP='TEMP_INF',
                      CHAM_GD=TEMPSC,
                      VALE_CALC=49.999944850242,
                      VALE_REFE=49.999,
                      PRECISION=1.E-4,
                      REFERENCE='ANALYTIQUE',),
                   _F(NOEUD='NO000397',
                      NOM_CMP='TEMP_SUP',
                      CHAM_GD=TEMPSC,
                      VALE_CALC=49.966895485706,
                      VALE_REFE=49.9658,
                      PRECISION=1.E-4,
                      REFERENCE='ANALYTIQUE',),
                   _F(NOEUD='NO000397',
                      NOM_CMP='TEMP_MIL',
                      CHAM_GD=TEMPSC,
                      VALE_CALC=49.96689465809,
                      VALE_REFE=49.9658,
                      PRECISION=1.E-4,
                      REFERENCE='ANALYTIQUE',),
                   _F(NOEUD='NO000397',
                      NOM_CMP='TEMP_INF',
                      CHAM_GD=TEMPSC,
                      VALE_CALC=49.966895485706,
                      VALE_REFE=49.9658,
                      PRECISION=1.E-4,
                      REFERENCE='ANALYTIQUE',),
                   _F(NOEUD='NO000401',
                      NOM_CMP='TEMP_SUP',
                      CHAM_GD=TEMPSC,
                      VALE_CALC=49.891274774051,
                      VALE_REFE=49.8888,
                      PRECISION=1.E-4,
                      REFERENCE='ANALYTIQUE',),
                   _F(NOEUD='NO000401',
                      NOM_CMP='TEMP_MIL',
                      CHAM_GD=TEMPSC,
                      VALE_CALC=49.891272055911,
                      VALE_REFE=49.8888,
                      PRECISION=1.E-4,
                      REFERENCE='ANALYTIQUE',),
                   _F(NOEUD='NO000401',
                      NOM_CMP='TEMP_INF',
                      CHAM_GD=TEMPSC,
                      VALE_CALC=49.891274774051,
                      VALE_REFE=49.8888,
                      PRECISION=1.E-4,
                      REFERENCE='ANALYTIQUE',),
                   _F(NOEUD='NO000405',
                      NOM_CMP='TEMP_SUP',
                      CHAM_GD=TEMPSC,
                      VALE_CALC=49.666083478717,
                      VALE_REFE=49.6631,
                      PRECISION=1.E-4,
                      REFERENCE='ANALYTIQUE',),
                   _F(NOEUD='NO000405',
                      NOM_CMP='TEMP_MIL',
                      CHAM_GD=TEMPSC,
                      VALE_CALC=49.666075130776,
                      VALE_REFE=49.6631,
                      PRECISION=1.E-4,
                      REFERENCE='ANALYTIQUE',),
                   _F(NOEUD='NO000405',
                      NOM_CMP='TEMP_INF',
                      CHAM_GD=TEMPSC,
                      VALE_CALC=49.666083478717,
                      VALE_REFE=49.6631,
                      PRECISION=1.E-4,
                      REFERENCE='ANALYTIQUE',),
                   _F(NOEUD='NO000409',
                      NOM_CMP='TEMP_SUP',
                      CHAM_GD=TEMPSC,
                      VALE_CALC=49.059440801271,
                      VALE_REFE=49.0542,
                      PRECISION=1.2E-4,
                      REFERENCE='ANALYTIQUE',),
                   _F(NOEUD='NO000409',
                      NOM_CMP='TEMP_MIL',
                      CHAM_GD=TEMPSC,
                      VALE_CALC=49.059417287225,
                      VALE_REFE=49.0542,
                      PRECISION=1.2E-4,
                      REFERENCE='ANALYTIQUE',),
                   _F(NOEUD='NO000409',
                      NOM_CMP='TEMP_INF',
                      CHAM_GD=TEMPSC,
                      VALE_CALC=49.059440801271,
                      VALE_REFE=49.0542,
                      PRECISION=1.2E-4,
                      REFERENCE='ANALYTIQUE',),
                   _F(NOEUD='NO000412',
                      NOM_CMP='TEMP_SUP',
                      CHAM_GD=TEMPSC,
                      VALE_CALC=47.5656630732,
                      VALE_REFE=47.556,
                      PRECISION=2.1E-4,
                      REFERENCE='ANALYTIQUE',),
                   _F(NOEUD='NO000412',
                      NOM_CMP='TEMP_MIL',
                      CHAM_GD=TEMPSC,
                      VALE_CALC=47.565602213992,
                      VALE_REFE=47.556,
                      PRECISION=2.1E-4,
                      REFERENCE='ANALYTIQUE',),
                   _F(NOEUD='NO000412',
                      NOM_CMP='TEMP_INF',
                      CHAM_GD=TEMPSC,
                      VALE_CALC=47.5656630732,
                      VALE_REFE=47.556,
                      PRECISION=2.1E-4,
                      REFERENCE='ANALYTIQUE',),
                   _F(NOEUD='NO000420',
                      NOM_CMP='TEMP_SUP',
                      PRECISION=2.1E-3,
                      CHAM_GD=TEMPSC,
                      VALE_CALC=26.755857115436,
                      VALE_REFE=26.70,
                      REFERENCE='ANALYTIQUE',),
                   _F(NOEUD='NO000420',
                      NOM_CMP='TEMP_MIL',
                      PRECISION=2.1E-3,
                      CHAM_GD=TEMPSC,
                      VALE_CALC=26.755252670408,
                      VALE_REFE=26.70,
                      REFERENCE='ANALYTIQUE',),
                   _F(NOEUD='NO000420',
                      NOM_CMP='TEMP_INF',
                      PRECISION=2.1E-3,
                      CHAM_GD=TEMPSC,
                      VALE_CALC=26.755857115436,
                      VALE_REFE=26.70,
                      REFERENCE='ANALYTIQUE',),
                   _F(NOEUD='NO000422',
                      NOM_CMP='TEMP_SUP',
                      PRECISION=2.E-3,
                      CHAM_GD=TEMPSC,
                      VALE_CALC=11.811891593797,
                      VALE_REFE=11.83,
                      REFERENCE='ANALYTIQUE',),
                   _F(NOEUD='NO000422',
                      NOM_CMP='TEMP_MIL',
                      PRECISION=2.E-3,
                      CHAM_GD=TEMPSC,
                      VALE_CALC=11.810589485753,
                      VALE_REFE=11.83,
                      REFERENCE='ANALYTIQUE',),
                   _F(NOEUD='NO000422',
                      NOM_CMP='TEMP_INF',
                      PRECISION=2.E-3,
                      CHAM_GD=TEMPSC,
                      VALE_CALC=11.811891593797,
                      VALE_REFE=11.83,
                      REFERENCE='ANALYTIQUE',),
                   _F(NOEUD='NO000426',
                      NOM_CMP='TEMP_SUP',
                      PRECISION=2.1E-3,
                      CHAM_GD=TEMPSC,
                      VALE_CALC=-26.75585711546,
                      VALE_REFE=-26.70,
                      REFERENCE='ANALYTIQUE',),
                   _F(NOEUD='NO000426',
                      NOM_CMP='TEMP_MIL',
                      PRECISION=2.1E-3,
                      CHAM_GD=TEMPSC,
                      VALE_CALC=-26.755252670433,
                      VALE_REFE=-26.70,
                      REFERENCE='ANALYTIQUE',),
                   _F(NOEUD='NO000426',
                      NOM_CMP='TEMP_INF',
                      PRECISION=2.1E-3,
                      CHAM_GD=TEMPSC,
                      VALE_CALC=-26.75585711546,
                      VALE_REFE=-26.70,
                      REFERENCE='ANALYTIQUE',),
                   _F(NOEUD='NO000434',
                      NOM_CMP='TEMP_SUP',
                      PRECISION=2.1E-3,
                      CHAM_GD=TEMPSC,
                      VALE_CALC=-47.565663073169,
                      VALE_REFE=-47.556,
                      REFERENCE='ANALYTIQUE',),
                   _F(NOEUD='NO000434',
                      NOM_CMP='TEMP_MIL',
                      PRECISION=2.1E-3,
                      CHAM_GD=TEMPSC,
                      VALE_CALC=-47.565602213961,
                      VALE_REFE=-47.556,
                      REFERENCE='ANALYTIQUE',),
                   _F(NOEUD='NO000434',
                      NOM_CMP='TEMP_INF',
                      PRECISION=2.1E-3,
                      CHAM_GD=TEMPSC,
                      VALE_CALC=-47.565663073169,
                      VALE_REFE=-47.556,
                      REFERENCE='ANALYTIQUE',),
                   ),
          )

FIN()
