# MODIF  DATE 10/10/2012   AUTEUR COURTOIS M.COURTOIS 
# TITRE PLAQUE INFINIE SOUMISE A DES FLUX ANTISYMETRIQUES
# tpls100b.para = tps_job 60 mem_job 256Mo ncpus 1 liste_test R
#            CONFIGURATION MANAGEMENT OF EDF VERSION
# ======================================================================
# COPYRIGHT (C) 1991 - 2012  EDF R&D                  WWW.CODE-ASTER.ORG
# THIS PROGRAM IS FREE SOFTWARE; YOU CAN REDISTRIBUTE IT AND/OR MODIFY
# IT UNDER THE TERMS OF THE GNU GENERAL PUBLIC LICENSE AS PUBLISHED BY
# THE FREE SOFTWARE FOUNDATION; EITHER VERSION 2 OF THE LICENSE, OR
# (AT YOUR OPTION) ANY LATER VERSION.
#
# THIS PROGRAM IS DISTRIBUTED IN THE HOPE THAT IT WILL BE USEFUL, BUT
# WITHOUT ANY WARRANTY; WITHOUT EVEN THE IMPLIED WARRANTY OF
# MERCHANTABILITY OR FITNESS FOR A PARTICULAR PURPOSE. SEE THE GNU
# GENERAL PUBLIC LICENSE FOR MORE DETAILS.
#
# YOU SHOULD HAVE RECEIVED A COPY OF THE GNU GENERAL PUBLIC LICENSE
# ALONG WITH THIS PROGRAM; IF NOT, WRITE TO EDF R&D CODE_ASTER,
#    1 AVENUE DU GENERAL DE GAULLE, 92141 CLAMART CEDEX, FRANCE.
# ======================================================================
#
# PLAQUE INFINIE SOUMISE A DES COUPLES DE FLUXS
# ANTISYMETRIQUES (MODELISATION COQUE THERMIQUE SEG36)
#

DEBUT(  CODE=_F( NOM = 'TPLS100B',NIV_PUB_WEB='INTERNET'),DEBUG=_F(SDVERI='OUI'))

M=LIRE_MAILLAGE(FORMAT='MED',  )

M=DEFI_GROUP( reuse=M,   MAILLAGE=M,
  CREA_GROUP_MA=_F(  NOM = 'TOUT', TOUT = 'OUI'))

MO=AFFE_MODELE(
                       MAILLAGE=M,
                      AFFE=_F( TOUT = 'OUI',PHENOMENE = 'THERMIQUE',
                                      MODELISATION = 'COQUE_PLAN'))

EPANT=AFFE_CARA_ELEM( MODELE=MO,
                           COQUE=_F(
       GROUP_MA = 'TOUT',
EPAIS = 4.) )

MAANT=DEFI_MATERIAU( THER=_F( RHO_CP = 1.0,LAMBDA = 4.5))

CMANT=AFFE_MATERIAU(  MAILLAGE=M, AFFE=_F( TOUT = 'OUI',MATER = MAANT))

VAL0=DEFI_CONSTANTE(   VALE=0.)

VAL30=DEFI_CONSTANTE(   VALE=30.)

VALM30=DEFI_CONSTANTE(   VALE=-30.)

CHANTF=AFFE_CHAR_THER_F(
           MODELE=MO,
          TEMP_IMPO=_F( TOUT = 'OUI',TEMP = VAL0),
          FLUX_REP=_F( GROUP_MA = 'GRSD2',FLUN_SUP = VAL30,FLUN_INF = VALM30))

MEANT=CALC_MATR_ELEM(
                    MODELE=MO,CHARGE=CHANTF,CHAM_MATER=CMANT,
                      CARA_ELEM=EPANT, OPTION='RIGI_THER'    )

VEANT=CALC_VECT_ELEM(  CHARGE=CHANTF,
                            OPTION='CHAR_THER' )

NUANT=NUME_DDL(   MATR_RIGI=MEANT )

KA=ASSE_MATRICE(   MATR_ELEM=MEANT,  NUME_DDL=NUANT )

FA=ASSE_VECTEUR(   VECT_ELEM=VEANT, NUME_DDL=NUANT  )

KA=FACTORISER( reuse=KA,   MATR_ASSE=KA)

TEMPA=RESOUDRE(   MATR=KA,    CHAM_NO=FA )

TEST_RESU(CHAM_NO=(_F(NOEUD='N201',
                      NOM_CMP='TEMP_SUP',
                      CHAM_GD=TEMPA,
                      VALE_CALC=13.332100000000001,
                      TOLE_MACHINE=9.0000000000000006E-05,),
                   _F(NOEUD='N176',
                      NOM_CMP='TEMP_SUP',
                      CHAM_GD=TEMPA,
                      VALE_CALC=13.256500000000001,
                      TOLE_MACHINE=7.9999999999999996E-06,),
                   _F(NOEUD='N161',
                      NOM_CMP='TEMP_SUP',
                      CHAM_GD=TEMPA,
                      VALE_CALC=12.7462,
                      TOLE_MACHINE=2.9999999999999997E-4,),
                   _F(NOEUD='N1',
                      NOM_CMP='TEMP_SUP',
                      CHAM_GD=TEMPA,
                      VALE_CALC=6.6665999999999999,
                      TOLE_MACHINE=1.E-4,),
                   _F(NOEUD='N46',
                      NOM_CMP='TEMP_SUP',
                      PRECISION=1.8E-3,
                      CHAM_GD=TEMPA,
                      VALE_CALC=0.076832601,
                      VALE_REFE=0.076789999999999997,
                      REFERENCE='NON_DEFINI',),
                   ),
          )

# MEME CAS TEST AVEC THER_LINEAIRE


CHANT=AFFE_CHAR_THER(
           MODELE=MO,
          TEMP_IMPO=_F( TOUT = 'OUI',TEMP = 0.),
          FLUX_REP=_F( GROUP_MA = 'GRSD2',FLUN_SUP = 30., FLUN_INF = -30.))

TEMPA2=THER_LINEAIRE(
               MODELE=MO,
               CHAM_MATER=CMANT,    CARA_ELEM=EPANT,
              EXCIT=_F(  CHARGE = CHANT) )

TEST_RESU(RESU=(_F(NUME_ORDRE=0,
                   RESULTAT=TEMPA2,
                   NOM_CHAM='TEMP',
                   NOEUD='N201',
                   NOM_CMP='TEMP_SUP',
                   VALE_CALC=13.332100000000001,
                   TOLE_MACHINE=9.0000000000000006E-05,
                   ),
                _F(NUME_ORDRE=0,
                   RESULTAT=TEMPA2,
                   NOM_CHAM='TEMP',
                   NOEUD='N176',
                   NOM_CMP='TEMP_SUP',
                   VALE_CALC=13.256500000000001,
                   TOLE_MACHINE=7.9999999999999996E-06,
                   ),
                _F(NUME_ORDRE=0,
                   RESULTAT=TEMPA2,
                   NOM_CHAM='TEMP',
                   NOEUD='N161',
                   NOM_CMP='TEMP_SUP',
                   VALE_CALC=12.7462,
                   TOLE_MACHINE=2.9999999999999997E-4,
                   ),
                _F(NUME_ORDRE=0,
                   RESULTAT=TEMPA2,
                   NOM_CHAM='TEMP',
                   NOEUD='N1',
                   NOM_CMP='TEMP_SUP',
                   VALE_CALC=6.6665999999999999,
                   TOLE_MACHINE=1.E-4,
                   ),
                _F(NUME_ORDRE=0,
                   RESULTAT=TEMPA2,
                   NOM_CHAM='TEMP',
                   NOEUD='N46',
                   NOM_CMP='TEMP_SUP',
                   VALE_CALC=0.076832601,
                   VALE_REFE=0.076789999999999997,
                   REFERENCE='NON_DEFINI',
                   PRECISION=1.8E-3,),
                ),
          )

FIN()
#
