# MODIF  DATE 10/10/2012   AUTEUR COURTOIS M.COURTOIS 
# TITRE CYLINDRE SOUMIS A DES COND. AUX LIMI. NON AXISYMETRIQUES QUAD8
# tplv100b.para = tps_job 60 mem_job 256Mo ncpus 1 liste_test S
#            CONFIGURATION MANAGEMENT OF EDF VERSION
# ======================================================================
# COPYRIGHT (C) 1991 - 2012  EDF R&D                  WWW.CODE-ASTER.ORG
# THIS PROGRAM IS FREE SOFTWARE; YOU CAN REDISTRIBUTE IT AND/OR MODIFY
# IT UNDER THE TERMS OF THE GNU GENERAL PUBLIC LICENSE AS PUBLISHED BY
# THE FREE SOFTWARE FOUNDATION; EITHER VERSION 2 OF THE LICENSE, OR
# (AT YOUR OPTION) ANY LATER VERSION.
#
# THIS PROGRAM IS DISTRIBUTED IN THE HOPE THAT IT WILL BE USEFUL, BUT
# WITHOUT ANY WARRANTY; WITHOUT EVEN THE IMPLIED WARRANTY OF
# MERCHANTABILITY OR FITNESS FOR A PARTICULAR PURPOSE. SEE THE GNU
# GENERAL PUBLIC LICENSE FOR MORE DETAILS.
#
# YOU SHOULD HAVE RECEIVED A COPY OF THE GNU GENERAL PUBLIC LICENSE
# ALONG WITH THIS PROGRAM; IF NOT, WRITE TO EDF R&D CODE_ASTER,
#    1 AVENUE DU GENERAL DE GAULLE, 92141 CLAMART CEDEX, FRANCE.
# ======================================================================
# CAS TEST SSLV109B
# CAS-TEST THERMIQUE FOURIER HARMONIQUE 2
#
# MODELISATION : ELEMENTS THERMIQUE AXIS_FOURIER (QUAD8)
# MAILLAGE     : ALIBABA ==> ASTER
#
# ----------------------------------------------------------------------
# GROUPES DE MAILLES: FLUX_IMPO : GRMA6
#                     ECHANGE   : GRMA7
# ----------------------------------------------------------------------
#

DEBUT(CODE=_F( NOM = 'TPLV100B',NIV_PUB_WEB='INTERNET'),DEBUG=_F(SDVERI='OUI'))

M=LIRE_MAILLAGE(   )

MO=AFFE_MODELE(        MAILLAGE=M,
                                AFFE=_F(  TOUT = 'OUI',
                                       PHENOMENE = 'THERMIQUE',
                                       MODELISATION = 'AXIS_FOURIER'))

MA=DEFI_MATERIAU(          THER=_F(  LAMBDA = 1.,
                                       RHO_CP = 0.))

CM=AFFE_MATERIAU(      MAILLAGE=M,
                                AFFE=_F(  TOUT = 'OUI',
                                       MATER = MA))

CH=AFFE_CHAR_THER(        MODELE=MO,

                        FLUX_REP=_F(  GROUP_MA = 'GRMA6', FLUN = 2.),

                        ECHANGE=_F(  GROUP_MA = 'GRMA7', COEF_H = 2., TEMP_EXT = 2.),

                        SOURCE=_F(  TOUT = 'OUI',       SOUR = 0.),
                              TEMP_IMPO=_F(  NOEUD = 'N1', TEMP = 0.))

KE=CALC_MATR_ELEM(       MODELE=MO,
                              CHARGE=CH,
                          CHAM_MATER=CM,
                          MODE_FOURIER=2,
                              OPTION='RIGI_THER'                      )

VE=CALC_VECT_ELEM(       CHARGE=CH,
                              OPTION='CHAR_THER'                      )

NU=NUME_DDL(          MATR_RIGI=KE                               )

KAS=ASSE_MATRICE(      MATR_ELEM=KE,
                            NUME_DDL=NU                               )

VAS=ASSE_VECTEUR(      VECT_ELEM=VE,
                            NUME_DDL=NU                               )

KAS=FACTORISER(      reuse=KAS,   MATR_ASSE=KAS                              )

TEMP=RESOUDRE(         MATR=KAS,
                             CHAM_NO=VAS                              )

FLUXNO=CALC_CHAM_ELEM(       MODELE=MO,
                           TEMP=TEMP,
                           MODE_FOURIER=2,
                               OPTION='FLUX_ELNO',
                          CHAM_MATER=CM                               )

TEST_RESU(CHAM_ELEM=(_F(NOEUD='N7',
                        CRITERE='RELATIF',
                        NOM_CMP='FLUX',
                        MAILLE='M1',
                        CHAM_GD=FLUXNO,
                        VALE_CALC=-1.0,
                        ),
                     _F(NOEUD='N12',
                        CRITERE='RELATIF',
                        NOM_CMP='FLUX',
                        MAILLE='M2',
                        CHAM_GD=FLUXNO,
                        VALE_CALC=-1.0,
                        ),
                     _F(NOEUD='N4',
                        CRITERE='RELATIF',
                        NOM_CMP='FLUX',
                        MAILLE='M1',
                        CHAM_GD=FLUXNO,
                        VALE_CALC=-2.0,
                        ),
                     _F(NOEUD='N5',
                        CRITERE='RELATIF',
                        NOM_CMP='FLUX',
                        MAILLE='M1',
                        CHAM_GD=FLUXNO,
                        VALE_CALC=-2.0,
                        ),
                     _F(NOEUD='N6',
                        CRITERE='RELATIF',
                        NOM_CMP='FLUX',
                        MAILLE='M2',
                        CHAM_GD=FLUXNO,
                        VALE_CALC=-2.0,
                        ),
                     _F(NOEUD='N7',
                        CRITERE='ABSOLU',
                        NOM_CMP='FLUY',
                        MAILLE='M1',
                        CHAM_GD=FLUXNO,
                        VALE_CALC=0.0,
                        ),
                     _F(NOEUD='N12',
                        CRITERE='ABSOLU',
                        NOM_CMP='FLUY',
                        MAILLE='M2',
                        CHAM_GD=FLUXNO,
                        VALE_CALC=0.0,
                        ),
                     _F(NOEUD='N4',
                        CRITERE='ABSOLU',
                        NOM_CMP='FLUY',
                        MAILLE='M1',
                        CHAM_GD=FLUXNO,
                        VALE_CALC=0.0,
                        ),
                     _F(NOEUD='N5',
                        CRITERE='ABSOLU',
                        NOM_CMP='FLUY',
                        MAILLE='M1',
                        CHAM_GD=FLUXNO,
                        VALE_CALC=0.0,
                        ),
                     _F(NOEUD='N6',
                        CRITERE='ABSOLU',
                        NOM_CMP='FLUY',
                        MAILLE='M2',
                        CHAM_GD=FLUXNO,
                        VALE_CALC=0.0,
                        ),
                     _F(NOEUD='N7',
                        CRITERE='RELATIF',
                        NOM_CMP='FLUZ',
                        MAILLE='M1',
                        CHAM_GD=FLUXNO,
                        VALE_CALC=1.0,
                        ),
                     _F(NOEUD='N12',
                        CRITERE='RELATIF',
                        NOM_CMP='FLUZ',
                        MAILLE='M2',
                        CHAM_GD=FLUXNO,
                        VALE_CALC=1.0,
                        ),
                     _F(NOEUD='N4',
                        CRITERE='RELATIF',
                        NOM_CMP='FLUZ',
                        MAILLE='M1',
                        CHAM_GD=FLUXNO,
                        VALE_CALC=2.0,
                        ),
                     _F(NOEUD='N5',
                        CRITERE='RELATIF',
                        NOM_CMP='FLUZ',
                        MAILLE='M1',
                        CHAM_GD=FLUXNO,
                        VALE_CALC=2.0,
                        ),
                     _F(NOEUD='N6',
                        CRITERE='RELATIF',
                        NOM_CMP='FLUZ',
                        MAILLE='M2',
                        CHAM_GD=FLUXNO,
                        VALE_CALC=2.0,
                        ),
                     ),
          CHAM_NO=(_F(NOEUD='N4',
                      CRITERE='RELATIF',
                      NOM_CMP='TEMP',
                      CHAM_GD=TEMP,
                      VALE_CALC=1.0,
                      ),
                   _F(NOEUD='N5',
                      CRITERE='RELATIF',
                      NOM_CMP='TEMP',
                      CHAM_GD=TEMP,
                      VALE_CALC=1.0,
                      ),
                   _F(NOEUD='N6',
                      CRITERE='RELATIF',
                      NOM_CMP='TEMP',
                      CHAM_GD=TEMP,
                      VALE_CALC=1.0,
                      ),
                   _F(NOEUD='N7',
                      CRITERE='RELATIF',
                      NOM_CMP='TEMP',
                      CHAM_GD=TEMP,
                      VALE_CALC=0.25,
                      ),
                   _F(NOEUD='N12',
                      CRITERE='RELATIF',
                      NOM_CMP='TEMP',
                      CHAM_GD=TEMP,
                      VALE_CALC=0.25,
                      ),
                   ),
          )

FIN()
#
