# TITRE CYLINDRE EN THERMIQUE STATIONNAIRE ANISOTROPE (HEXA8)
# ======================================================================
# COPYRIGHT (C) 1991 - 2015  EDF R&D                  WWW.CODE-ASTER.ORG
# THIS PROGRAM IS FREE SOFTWARE; YOU CAN REDISTRIBUTE IT AND/OR MODIFY
# IT UNDER THE TERMS OF THE GNU GENERAL PUBLIC LICENSE AS PUBLISHED BY
# THE FREE SOFTWARE FOUNDATION; EITHER VERSION 2 OF THE LICENSE, OR
# (AT YOUR OPTION) ANY LATER VERSION.
#
# THIS PROGRAM IS DISTRIBUTED IN THE HOPE THAT IT WILL BE USEFUL, BUT
# WITHOUT ANY WARRANTY; WITHOUT EVEN THE IMPLIED WARRANTY OF
# MERCHANTABILITY OR FITNESS FOR A PARTICULAR PURPOSE. SEE THE GNU
# GENERAL PUBLIC LICENSE FOR MORE DETAILS.
#
# YOU SHOULD HAVE RECEIVED A COPY OF THE GNU GENERAL PUBLIC LICENSE
# ALONG WITH THIS PROGRAM; IF NOT, WRITE TO EDF R&D CODE_ASTER,
#    1 AVENUE DU GENERAL DE GAULLE, 92141 CLAMART CEDEX, FRANCE.
# ======================================================================
#CAS_TEST__: TPLV103A
# CAS TEST TPLL01H

DEBUT(CODE=_F(NIV_PUB_WEB='INTERNET'),DEBUG=_F(SDVERI='OUI'))

PRE_IDEAS()

MAIL=LIRE_MAILLAGE( )

PHIIN=DEFI_CONSTANTE(    NOM_RESU='FLUN',  VALE=0.0     )

PHIEX=DEFI_CONSTANTE(    NOM_RESU='FLUN',  VALE=0.0     )

TIMP1=DEFI_CONSTANTE(    NOM_RESU='FLUN',  VALE=0.0     )

TIMP2=DEFI_CONSTANTE(    NOM_RESU='FLUN',  VALE=100.0   )

MATER2=DEFI_MATERIAU( THER_ORTH=_F(   LAMBDA_L = 3.,
                                      LAMBDA_T = 0.5,
                                      LAMBDA_N = 1.,
                                      RHO_CP = 2.0) )

MATERI=DEFI_MATERIAU( THER_ORTH=_F(   LAMBDA_L = 3.,
                                      LAMBDA_T = 0.5,
                                      LAMBDA_N = 1.,
                                      RHO_CP = 2.0) )

CHMAT=AFFE_MATERIAU(  MAILLAGE=MAIL,
                        AFFE=_F(  TOUT = 'OUI', MATER = MATERI)  )

MOTH=AFFE_MODELE(   MAILLAGE=MAIL,
                      AFFE=_F( TOUT = 'OUI', MODELISATION = '3D',
                            PHENOMENE = 'THERMIQUE') )

ESSAI=AFFE_CARA_ELEM(   MODELE=MOTH,
                          MASSIF=_F(  GROUP_MA = 'VOLU',
                                   ANGL_AXE = (0.,90.,),
                                   ORIG_AXE = (0.,0.,0.,))  )

CHTH=AFFE_CHAR_THER_F(   MODELE=MOTH,
               FLUX_REP=_F( GROUP_MA = 'PHIIN',  FLUN = PHIIN)  )

CHTH2=AFFE_CHAR_THER_F(   MODELE=MOTH,
               FLUX_REP=_F( GROUP_MA = 'PHIEX',  FLUN = PHIEX)  )

CHTH3=AFFE_CHAR_THER_F(   MODELE=MOTH,
               TEMP_IMPO=_F( GROUP_NO = 'TIMPO',  TEMP = TIMP1)  )

CHTH4=AFFE_CHAR_THER_F(   MODELE=MOTH,
               TEMP_IMPO=_F( GROUP_NO = 'TIMPO2',  TEMP = TIMP2)  )

LR8=DEFI_LIST_REEL(   DEBUT=0.,
                     INTERVALLE=_F(  JUSQU_A = 10.0,   NOMBRE = 2)  )

TEMPE=THER_LINEAIRE(        MODELE=MOTH,
                              ETAT_INIT=_F(  STATIONNAIRE = 'OUI'),
                              INCREMENT=_F(  LIST_INST = LR8),
                             PARM_THETA=0.8,
                             CHAM_MATER=CHMAT,
                              CARA_ELEM=ESSAI,EXCIT=(
                            _F(  CHARGE = CHTH),
                                  _F(  CHARGE = CHTH2),
                                  _F(  CHARGE = CHTH3),
                                  _F(  CHARGE = CHTH4))
                          )


TEMPE=CALC_CHAMP( reuse=TEMPE, RESULTAT=TEMPE,
                  THERMIQUE=('FLUX_ELNO'),
                 );

TEST_RESU(RESU=(_F(NUME_ORDRE=2,
                   GROUP_NO='A',
                   RESULTAT=TEMPE,
                   NOM_CHAM='TEMP',
                   NOM_CMP='TEMP',
                   REFERENCE='ANALYTIQUE',
                   VALE_CALC=100.0,
                   VALE_REFE=100.0,),
                _F(NUME_ORDRE=2,
                   GROUP_NO='B',
                   RESULTAT=TEMPE,
                   NOM_CHAM='TEMP',
                   NOM_CMP='TEMP',
                   REFERENCE='ANALYTIQUE',
                   VALE_CALC=50.0,
                   VALE_REFE=50.0,),
                _F(NUME_ORDRE=2,
                   RESULTAT=TEMPE,
                   NOM_CHAM='FLUX_ELNO',
                   NOEUD='N1',
                   NOM_CMP='FLUY',
                   VALE_CALC=15.950575614,
                   VALE_REFE=15.9155,
                   REFERENCE='ANALYTIQUE',
                   PRECISION=5.E-3,
                   MAILLE='M1',),
                ),
          )

FIN()
#
