# MODIF  DATE 07/06/2002   AUTEUR DURAND C.DURAND 
# TITRE ECHANGE-PAROI ET LIAISON_GR. EN THERMIQUE LIN.(MOD:PLAN,QUAD8)
#            CONFIGURATION MANAGEMENT OF EDF VERSION
# ======================================================================
# COPYRIGHT (C) 1991 - 2001  EDF R&D                  WWW.CODE-ASTER.ORG
# THIS PROGRAM IS FREE SOFTWARE; YOU CAN REDISTRIBUTE IT AND/OR MODIFY
# IT UNDER THE TERMS OF THE GNU GENERAL PUBLIC LICENSE AS PUBLISHED BY
# THE FREE SOFTWARE FOUNDATION; EITHER VERSION 2 OF THE LICENSE, OR   
# (AT YOUR OPTION) ANY LATER VERSION.                                 
#
# THIS PROGRAM IS DISTRIBUTED IN THE HOPE THAT IT WILL BE USEFUL, BUT 
# WITHOUT ANY WARRANTY; WITHOUT EVEN THE IMPLIED WARRANTY OF          
# MERCHANTABILITY OR FITNESS FOR A PARTICULAR PURPOSE. SEE THE GNU    
# GENERAL PUBLIC LICENSE FOR MORE DETAILS.                            
#
# YOU SHOULD HAVE RECEIVED A COPY OF THE GNU GENERAL PUBLIC LICENSE   
# ALONG WITH THIS PROGRAM; IF NOT, WRITE TO EDF R&D CODE_ASTER,       
#    1 AVENUE DU GENERAL DE GAULLE, 92141 CLAMART CEDEX, FRANCE.      
# ======================================================================
# --------------------------------------------------------------------

DEBUT(   CODE=_F(  NOM = 'TPLV101A',NIV_PUB_WEB='INTERNET') )

MA=LIRE_MAILLAGE( )

MO=AFFE_MODELE(    MAILLAGE=MA,
                       AFFE=_F(  TOUT = 'OUI',
                              PHENOMENE = 'THERMIQUE',
                              MODELISATION = 'PLAN') )

MAT=DEFI_MATERIAU(      THER=_F(  RHO_CP = 0.,
                                 LAMBDA = 1.000) )

CHMAT=AFFE_MATERIAU(     MAILLAGE=MA,
                             AFFE=_F(  TOUT = 'OUI',
                                    MATER = MAT) )

CH=AFFE_CHAR_THER(          MODELE=MO,SOURCE=(
                              _F(   MAILLE = ( 'M1', 'M2', 'M3', ),
                                        SOUR = -4.),
                              _F(   MAILLE = ( 'M4', 'M5', 'M6', ),
                                        SOUR = -3.)),
                       ECHANGE_PAROI=_F(   MAILLE_1 = ( 'M8', 'M9', ),
                                        MAILLE_2 = ( 'M12','M11',),
                                        COEF_H = 2.),
                      LIAISON_GROUP=_F(    NOEUD_1 = ('N2','N6','N3','N11','N9',),
                                        GROUP_NO_2 = ('GNM10','GNM11',),
                                        SANS_NOEUD = ('N9','N28','N31',),
                                        DDL_1 = 'TEMP',
                                        DDL_2 = 'TEMP',
                                        COEF_MULT_1 = 1.,
                                        COEF_MULT_2 = -1.,
                                        COEF_IMPO = -1.),FLUX_REP=(
                            _F(   GROUP_MA = 'X3',
                                        FLUN = 3.),
                            _F(   GROUP_MA = 'Y3',
                                        FLUN = 6.)),TEMP_IMPO=(
                           _F(   NOEUD = 'N1',
                                        TEMP = 0.),
                           _F(   NOEUD = 'N20',
                                        TEMP = 4.5))
                    )

LR8=DEFI_LIST_REEL(      DEBUT=0.,
                              INTERVALLE=_F(  JUSQU_A = 10., NOMBRE = 2))

TEMPE=THER_LINEAIRE(    MODELE=MO,
                              TEMP_INIT=_F(  STATIONNAIRE = 'OUI'),
                              INCREMENT=_F(  LIST_INST = LR8),
                             CHAM_MATER=CHMAT,
                                  EXCIT=_F(  CHARGE = CH),
         TITRE=('CAS TEST &CODE','&RL COMMANDE &COMMANDE',)
       )

T0=CREA_CHAMP(  OPERATION='EXTR', TYPE_CHAM='NOEU_TEMP_R',
NOM_CHAM='TEMP', RESULTAT=TEMPE,
                    NUME_ORDRE=0 )

T2=CREA_CHAMP(  OPERATION='EXTR', TYPE_CHAM='NOEU_TEMP_R',
NOM_CHAM='TEMP', RESULTAT=TEMPE,
                    NUME_ORDRE=2 )

TEST_RESU(CHAM_NO=(  
# T(X,Y,Z) = X*X + Y*Y SUR M1, M2
  _F(  CHAM_GD = T0, NOEUD = 'N2',   NOM_CMP = 'TEMP', VALE = 1.,
    PRECISION = 1.0E-6),
  _F(  CHAM_GD = T0, NOEUD = 'N3',   NOM_CMP = 'TEMP', VALE = 2.,
    PRECISION = 1.0E-6),
  _F(  CHAM_GD = T0, NOEUD = 'N6',   NOM_CMP = 'TEMP', VALE = 1.25,
    PRECISION = 1.0E-6),
  _F(  CHAM_GD = T0, NOEUD = 'N11',  NOM_CMP = 'TEMP', VALE = 3.25,
    PRECISION = 1.0E-6),
  _F(  CHAM_GD = T0, NOEUD = 'N9',   NOM_CMP = 'TEMP', VALE = 5.,
    PRECISION = 1.0E-6),
  _F(  CHAM_GD = T0, NOEUD = 'N16',  NOM_CMP = 'TEMP', VALE = 7.25,
    PRECISION = 1.0E-6),
  _F(  CHAM_GD = T0, NOEUD = 'N14',  NOM_CMP = 'TEMP', VALE = 10.,
    PRECISION = 1.0E-6),
  _F(  CHAM_GD = T2, NOEUD = 'N2',   NOM_CMP = 'TEMP', VALE = 1.,
    PRECISION = 1.0E-6),
  _F(  CHAM_GD = T2, NOEUD = 'N3',   NOM_CMP = 'TEMP', VALE = 2.,
    PRECISION = 1.0E-6),
  _F(  CHAM_GD = T2, NOEUD = 'N6',   NOM_CMP = 'TEMP', VALE = 1.25,
    PRECISION = 1.0E-6),
  _F(  CHAM_GD = T2, NOEUD = 'N11',  NOM_CMP = 'TEMP', VALE = 3.25,
    PRECISION = 1.0E-6),
  _F(  CHAM_GD = T2, NOEUD = 'N9',   NOM_CMP = 'TEMP', VALE = 5.,
    PRECISION = 1.0E-6),
  _F(  CHAM_GD = T2, NOEUD = 'N16',  NOM_CMP = 'TEMP', VALE = 7.25,
    PRECISION = 1.0E-6),
  _F(  CHAM_GD = T2, NOEUD = 'N14',  NOM_CMP = 'TEMP', VALE = 10.,
    PRECISION = 1.0E-6),
# T(X,Y,Z) = 0.5*X*X + Y*Y SUR M3, M4
  _F(  CHAM_GD = T0, NOEUD = 'N19',  NOM_CMP = 'TEMP', VALE = 2.,
    PRECISION = 1.0E-6),
  _F(  CHAM_GD = T0, NOEUD = 'N22',  NOM_CMP = 'TEMP', VALE = 3.,
    PRECISION = 1.0E-6),
  _F(  CHAM_GD = T0, NOEUD = 'N26',  NOM_CMP = 'TEMP', VALE = 2.25,
    PRECISION = 1.0E-6),
  _F(  CHAM_GD = T0, NOEUD = 'N31',  NOM_CMP = 'TEMP', VALE = 4.25,
    PRECISION = 1.0E-6),
  _F(  CHAM_GD = T0, NOEUD = 'N28',  NOM_CMP = 'TEMP', VALE = 6.,
    PRECISION = 1.0E-6),
  _F(  CHAM_GD = T0, NOEUD = 'N36',  NOM_CMP = 'TEMP', VALE = 8.25,
    PRECISION = 1.0E-6),
  _F(  CHAM_GD = T0, NOEUD = 'N33',  NOM_CMP = 'TEMP', VALE = 11.,
    PRECISION = 1.0E-6),
  _F(  CHAM_GD = T2, NOEUD = 'N19',  NOM_CMP = 'TEMP', VALE = 2.,
    PRECISION = 1.0E-6),
  _F(  CHAM_GD = T2, NOEUD = 'N22',  NOM_CMP = 'TEMP', VALE = 3.,
    PRECISION = 1.0E-6),
  _F(  CHAM_GD = T2, NOEUD = 'N26',  NOM_CMP = 'TEMP', VALE = 2.25,
    PRECISION = 1.0E-6),
  _F(  CHAM_GD = T2, NOEUD = 'N31',  NOM_CMP = 'TEMP', VALE = 4.25,
    PRECISION = 1.0E-6),
  _F(  CHAM_GD = T2, NOEUD = 'N28',  NOM_CMP = 'TEMP', VALE = 6.,
    PRECISION = 1.0E-6),
  _F(  CHAM_GD = T2, NOEUD = 'N36',  NOM_CMP = 'TEMP', VALE = 8.25,
    PRECISION = 1.0E-6),
  _F(  CHAM_GD = T2, NOEUD = 'N33',  NOM_CMP = 'TEMP', VALE = 11.,
    PRECISION = 1.0E-6)) )

FIN()
#
