# MODIF  DATE 22/10/2007   AUTEUR PELLET J.PELLET 
# TITRE CYLINDRE INFINI EN THERMIQUE STATIONNAIRE ANISOTROPE (QUAD4)
#            CONFIGURATION MANAGEMENT OF EDF VERSION
# ======================================================================
# COPYRIGHT (C) 1991 - 2001  EDF R&D                  WWW.CODE-ASTER.ORG
# THIS PROGRAM IS FREE SOFTWARE; YOU CAN REDISTRIBUTE IT AND/OR MODIFY
# IT UNDER THE TERMS OF THE GNU GENERAL PUBLIC LICENSE AS PUBLISHED BY
# THE FREE SOFTWARE FOUNDATION; EITHER VERSION 2 OF THE LICENSE, OR
# (AT YOUR OPTION) ANY LATER VERSION.
#
# THIS PROGRAM IS DISTRIBUTED IN THE HOPE THAT IT WILL BE USEFUL, BUT
# WITHOUT ANY WARRANTY; WITHOUT EVEN THE IMPLIED WARRANTY OF
# MERCHANTABILITY OR FITNESS FOR A PARTICULAR PURPOSE. SEE THE GNU
# GENERAL PUBLIC LICENSE FOR MORE DETAILS.
#
# YOU SHOULD HAVE RECEIVED A COPY OF THE GNU GENERAL PUBLIC LICENSE
# ALONG WITH THIS PROGRAM; IF NOT, WRITE TO EDF R&D CODE_ASTER,
#    1 AVENUE DU GENERAL DE GAULLE, 92141 CLAMART CEDEX, FRANCE.
# ======================================================================
#CAS_TEST__: TPLV103B
# CAS TEST TPLV103B

DEBUT(CODE=_F(NOM='TPLV103B',NIV_PUB_WEB='INTERNET'),DEBUG=_F(SDVERI='OUI'))

PRE_IDEAS()

MAIL=LIRE_MAILLAGE( )

TIMP1=DEFI_CONSTANTE(    NOM_RESU='FLUN',  VALE=0.0         )

TIMP2=DEFI_CONSTANTE(    NOM_RESU='FLUN',  VALE=100.0         )

#  MATERI =DEFI_MATERIAU(THER_ORTHO: ( LAMBDA_L: 1.
#          LAMBDA_T: 0.5 LAMBDA_N: 3. RHO_CP:2.0 ));


MATERI=DEFI_MATERIAU( THER_ORTH=_F(  LAMBDA_L = 3.,
          LAMBDA_T = 0.5, LAMBDA_N = 1., RHO_CP = 2.0))

CHMAT=AFFE_MATERIAU(  MAILLAGE=MAIL,
                AFFE=_F(  TOUT = 'OUI', MATER = MATERI) )

MOTH=AFFE_MODELE(  MAILLAGE=MAIL,
                     AFFE=_F( TOUT = 'OUI', MODELISATION = 'PLAN',
                                      PHENOMENE = 'THERMIQUE'))

ESSAI=AFFE_CARA_ELEM(MODELE=MOTH,

                MASSIF=_F(
                GROUP_MA = ('VOLUME',),
                ANGL_AXE = (0.,0.,),
                ORIG_AXE = (0.,0.,))
                      )

CHTH1=AFFE_CHAR_THER_F(  MODELE=MOTH,

                   TEMP_IMPO=_F( GROUP_NO = 'TEMPIM1',  TEMP = TIMP1)

         )

CHTH2=AFFE_CHAR_THER_F(  MODELE=MOTH,

                   TEMP_IMPO=_F( GROUP_NO = 'TEMPIM2',  TEMP = TIMP2)

         )

LR8=DEFI_LIST_REEL(        DEBUT=0.,
       INTERVALLE=_F(    JUSQU_A = 10.0,   NOMBRE = 2)
                       )

TEMPE=THER_LINEAIRE(        MODELE=MOTH,
           TEMP_INIT=_F( STATIONNAIRE = 'OUI'),
          INCREMENT=_F( LIST_INST = LR8),
           PARM_THETA=0.8,
             CHAM_MATER=CHMAT,EXCIT=( _F( CHARGE = CHTH1),
          _F( CHARGE = CHTH2)),
           CARA_ELEM=ESSAI
             )

T2=CREA_CHAMP(  OPERATION='EXTR', TYPE_CHAM='NOEU_TEMP_R',
                NOM_CHAM='TEMP', RESULTAT=TEMPE, NUME_ORDRE=2)

TEMPE=CALC_ELEM( reuse=TEMPE, RESULTAT=TEMPE,
                 OPTION=('FLUX_ELNO_TEMP','FLUX_ELGA_TEMP',),
                 );

TEST_RESU(RESU=(
   _F( RESULTAT = TEMPE, NUME_ORDRE=2, NOM_CHAM='TEMP', NOEUD = 'N66',
   NOM_CMP = 'TEMP', VALE = 100.0,   REFERENCE = 'ANALYTIQUE'),
   _F( RESULTAT = TEMPE, NUME_ORDRE=2, NOM_CHAM='TEMP', GROUP_NO = 'TEMPMIL',
   NOM_CMP = 'TEMP', VALE = 50.0,   REFERENCE = 'ANALYTIQUE'),

   _F( RESULTAT = TEMPE, NUME_ORDRE=2, NOM_CHAM='FLUX_ELNO_TEMP',MAILLE = 'M50',
   NOEUD = 'N66', NOM_CMP = 'FLUX', VALE = 15.9155, PRECISION = 5.E-3,
   REFERENCE = 'ANALYTIQUE'),),
       );

FIN()
#
