# TITRE GRADIENT THERMIQUE DANS UN CYLINDRE
# ======================================================================
# COPYRIGHT (C) 1991 - 2012  EDF R&D                  WWW.CODE-ASTER.ORG
# THIS PROGRAM IS FREE SOFTWARE; YOU CAN REDISTRIBUTE IT AND/OR MODIFY
# IT UNDER THE TERMS OF THE GNU GENERAL PUBLIC LICENSE AS PUBLISHED BY
# THE FREE SOFTWARE FOUNDATION; EITHER VERSION 2 OF THE LICENSE, OR   
# (AT YOUR OPTION) ANY LATER VERSION.                                 
#
# THIS PROGRAM IS DISTRIBUTED IN THE HOPE THAT IT WILL BE USEFUL, BUT 
# WITHOUT ANY WARRANTY; WITHOUT EVEN THE IMPLIED WARRANTY OF          
# MERCHANTABILITY OR FITNESS FOR A PARTICULAR PURPOSE. SEE THE GNU    
# GENERAL PUBLIC LICENSE FOR MORE DETAILS.                            
#
# YOU SHOULD HAVE RECEIVED A COPY OF THE GNU GENERAL PUBLIC LICENSE   
# ALONG WITH THIS PROGRAM; IF NOT, WRITE TO EDF R&D CODE_ASTER,       
#    1 AVENUE DU GENERAL DE GAULLE, 92141 CLAMART CEDEX, FRANCE.      
# ======================================================================
#
# MAILLES : HEXA8, PENTA6
#

DEBUT(  CODE=_F(NIV_PUB_WEB='INTERNET'))

#
# LECTURE DU MAILLAGE ----------------------------------------------
#

MAILL=LIRE_MAILLAGE(FORMAT='MED', )

#
# DEFINITION DES CHARGEMENTS ET DU MATERIAU ------------------------
#


MATER=DEFI_MATERIAU(    THER=_F(  RHO_CP = 1.0,
                                    LAMBDA = 1.)
                         )

#
# AFFECTATIONS: MATERIAU  MODELE  CHARGEMENT -----------------------
#

MODELE=AFFE_MODELE(    MAILLAGE=MAILL,
                            AFFE=_F(  TOUT = 'OUI',
                                   PHENOMENE = 'THERMIQUE',
                                   MODELISATION = '3D')
                        )

CHMATE=AFFE_MATERIAU(    MAILLAGE=MAILL,
                              AFFE=_F(  TOUT = 'OUI',  MATER = MATER)
                          )

CHARGE=AFFE_CHAR_THER(   MODELE=MODELE,TEMP_IMPO=(
                            _F(  NOEUD = 'N3',    TEMP = 0.26666E+02),
                            _F(  NOEUD = 'N4',    TEMP = 0.26666E+02),
                            _F(  NOEUD = 'N13',   TEMP = 0.25812E+02),
                            _F(  NOEUD = 'N14',   TEMP = 0.25812E+02),
                            _F(  NOEUD = 'N27',   TEMP = 0.23283E+02),
                            _F(  NOEUD = 'N28',   TEMP = 0.23283E+02),
                            _F(  NOEUD = 'N45',   TEMP = 0.19176E+02),
                            _F(  NOEUD = 'N46',   TEMP = 0.19176E+02),
                            _F(  NOEUD = 'N65',   TEMP = 0.13649E+02),
                            _F(  NOEUD = 'N66',   TEMP = 0.13649E+02),
                            _F(  NOEUD = 'N83',   TEMP = 0.69138E+01),
                            _F(  NOEUD = 'N84',   TEMP = 0.69138E+01),
                            _F(  NOEUD = 'N111',  TEMP = -0.77002E+00),
                            _F(  NOEUD = 'N112',  TEMP = -0.77002E+00),
                            _F(  NOEUD = 'N131',  TEMP = -0.91074E+01),
                            _F(  NOEUD = 'N132',  TEMP = -0.91074E+01),
                            _F(  NOEUD = 'N155',  TEMP = -0.17778E+02),
                            _F(  NOEUD = 'N156',  TEMP = -0.17778E+02),
                            _F(  NOEUD = 'N181',  TEMP = -0.26449E+02),
                            _F(  NOEUD = 'N182',  TEMP = -0.26449E+02),
# ... 13 like lines cut
                            _F(  NOEUD = 'N274',  TEMP = -0.62222E+02))
                           )

#
# RESOLUTION ------------------------------------------------------
#


TEMP=THER_LINEAIRE( 
                      MODELE=MODELE,
                  CHAM_MATER=CHMATE,
                       EXCIT=_F(  CHARGE = CHARGE)
                         )

#
# ANALYSE DES RESULTATS -------------------------------------------
#
TPR=CREA_CHAMP(  OPERATION='EXTR', TYPE_CHAM='NOEU_TEMP_R',
NOM_CHAM='TEMP', RESULTAT=TEMP, NUME_ORDRE=0)

#

TEST_RESU(CHAM_NO=(_F(NOEUD='N123',
                      NOM_CMP='TEMP',
                      PRECISION=1.E-2,
                      CHAM_GD=TPR,
                      VALE_CALC=-17.778033321,
                      VALE_REFE=-17.777999999999999,
                      REFERENCE='NON_DEFINI',),
                   _F(NOEUD='N124',
                      NOM_CMP='TEMP',
                      PRECISION=1.E-2,
                      CHAM_GD=TPR,
                      VALE_CALC=-17.778033321,
                      VALE_REFE=-17.777999999999999,
                      REFERENCE='NON_DEFINI',),
                   _F(NOEUD='N53',
                      NOM_CMP='TEMP',
                      PRECISION=1.E-2,
                      CHAM_GD=TPR,
                      VALE_CALC=-6.666999887,
                      VALE_REFE=-6.6669999999999998,
                      REFERENCE='NON_DEFINI',),
                   _F(NOEUD='N54',
                      NOM_CMP='TEMP',
                      PRECISION=1.E-2,
                      CHAM_GD=TPR,
                      VALE_CALC=-6.666999887,
                      VALE_REFE=-6.6669999999999998,
                      REFERENCE='NON_DEFINI',),
                   _F(NOEUD='N17',
                      NOM_CMP='TEMP',
                      PRECISION=1.E-2,
                      CHAM_GD=TPR,
                      VALE_CALC=4.444028434,
                      VALE_REFE=4.444,
                      REFERENCE='NON_DEFINI',),
                   _F(NOEUD='N18',
                      NOM_CMP='TEMP',
                      PRECISION=1.E-2,
                      CHAM_GD=TPR,
                      VALE_CALC=4.444028434,
                      VALE_REFE=4.444,
                      REFERENCE='NON_DEFINI',),
                   _F(NOEUD='N6',
                      NOM_CMP='TEMP',
                      PRECISION=1.E-2,
                      CHAM_GD=TPR,
                      VALE_CALC=15.555026930,
                      VALE_REFE=15.555999999999999,
                      REFERENCE='NON_DEFINI',),
                   _F(NOEUD='N5',
                      NOM_CMP='TEMP',
                      PRECISION=1.E-2,
                      CHAM_GD=TPR,
                      VALE_CALC=15.555026930,
                      VALE_REFE=15.555999999999999,
                      REFERENCE='NON_DEFINI',),
                   _F(NOEUD='N3',
                      NOM_CMP='TEMP',
                      PRECISION=1.E-2,
                      CHAM_GD=TPR,
                      VALE_CALC=26.666000000,
                      VALE_REFE=26.667000000000002,
                      REFERENCE='NON_DEFINI',),
                   _F(NOEUD='N4',
                      NOM_CMP='TEMP',
                      PRECISION=1.E-2,
                      CHAM_GD=TPR,
                      VALE_CALC=26.666000000,
                      VALE_REFE=26.667000000000002,
                      REFERENCE='NON_DEFINI',),
                   _F(NOEUD='N123',
                      CRITERE='ABSOLU',
                      NOM_CMP='TEMP',
                      PRECISION=1.E-2,
                      CHAM_GD=TPR,
                      VALE_CALC=-17.778033321,
                      VALE_REFE=-17.777999999999999,
                      REFERENCE='NON_DEFINI',),
                   _F(NOEUD='N124',
                      CRITERE='ABSOLU',
                      NOM_CMP='TEMP',
                      PRECISION=1.E-2,
                      CHAM_GD=TPR,
                      VALE_CALC=-17.778033321,
                      VALE_REFE=-17.777999999999999,
                      REFERENCE='NON_DEFINI',),
                   _F(NOEUD='N53',
                      CRITERE='ABSOLU',
                      NOM_CMP='TEMP',
                      PRECISION=1.E-2,
                      CHAM_GD=TPR,
                      VALE_CALC=-6.666999887,
                      VALE_REFE=-6.6669999999999998,
                      REFERENCE='NON_DEFINI',),
                   _F(NOEUD='N54',
                      CRITERE='ABSOLU',
                      NOM_CMP='TEMP',
                      PRECISION=1.E-2,
                      CHAM_GD=TPR,
                      VALE_CALC=-6.666999887,
                      VALE_REFE=-6.6669999999999998,
                      REFERENCE='NON_DEFINI',),
                   _F(NOEUD='N17',
                      CRITERE='ABSOLU',
                      NOM_CMP='TEMP',
                      PRECISION=1.E-2,
                      CHAM_GD=TPR,
                      VALE_CALC=4.444028434,
                      VALE_REFE=4.444,
                      REFERENCE='NON_DEFINI',),
                   _F(NOEUD='N18',
                      CRITERE='ABSOLU',
                      NOM_CMP='TEMP',
                      PRECISION=1.E-2,
                      CHAM_GD=TPR,
                      VALE_CALC=4.444028434,
                      VALE_REFE=4.444,
                      REFERENCE='NON_DEFINI',),
                   _F(NOEUD='N6',
                      CRITERE='ABSOLU',
                      NOM_CMP='TEMP',
                      PRECISION=1.E-2,
                      CHAM_GD=TPR,
                      VALE_CALC=15.555026930,
                      VALE_REFE=15.555999999999999,
                      REFERENCE='NON_DEFINI',),
                   _F(NOEUD='N5',
                      CRITERE='ABSOLU',
                      NOM_CMP='TEMP',
                      PRECISION=1.E-2,
                      CHAM_GD=TPR,
                      VALE_CALC=15.555026930,
                      VALE_REFE=15.555999999999999,
                      REFERENCE='NON_DEFINI',),
                   _F(NOEUD='N3',
                      CRITERE='ABSOLU',
                      NOM_CMP='TEMP',
                      PRECISION=1.E-2,
                      CHAM_GD=TPR,
                      VALE_CALC=26.666000000,
                      VALE_REFE=26.667000000000002,
                      REFERENCE='NON_DEFINI',),
                   _F(NOEUD='N4',
                      CRITERE='ABSOLU',
                      NOM_CMP='TEMP',
                      PRECISION=1.E-2,
                      CHAM_GD=TPR,
                      VALE_CALC=26.666000000,
                      VALE_REFE=26.667000000000002,
                      REFERENCE='NON_DEFINI',),
                   _F(NOEUD='N69',
                      NOM_CMP='TEMP',
                      PRECISION=1.E-2,
                      CHAM_GD=TPR,
                      VALE_CALC=-9.921346132,
                      VALE_REFE=-9.9209999999999994,
                      REFERENCE='NON_DEFINI',),
                   _F(NOEUD='N70',
                      NOM_CMP='TEMP',
                      PRECISION=1.E-2,
                      CHAM_GD=TPR,
                      VALE_CALC=-9.921346132,
                      VALE_REFE=-9.9209999999999994,
                      REFERENCE='NON_DEFINI',),
                   _F(NOEUD='N49',
                      NOM_CMP='TEMP',
                      PRECISION=1.E-2,
                      CHAM_GD=TPR,
                      VALE_CALC=-2.064647853,
                      VALE_REFE=-2.0640000000000001,
                      REFERENCE='NON_DEFINI',),
                   _F(NOEUD='N50',
                      NOM_CMP='TEMP',
                      PRECISION=1.E-2,
                      CHAM_GD=TPR,
                      VALE_CALC=-2.064647853,
                      VALE_REFE=-2.0640000000000001,
                      REFERENCE='NON_DEFINI',),
                   _F(NOEUD='N57',
                      NOM_CMP='TEMP',
                      PRECISION=1.E-2,
                      CHAM_GD=TPR,
                      VALE_CALC=5.792082429,
                      VALE_REFE=5.7919999999999998,
                      REFERENCE='NON_DEFINI',),
                   _F(NOEUD='N58',
                      NOM_CMP='TEMP',
                      PRECISION=1.E-2,
                      CHAM_GD=TPR,
                      VALE_CALC=5.792082429,
                      VALE_REFE=5.7919999999999998,
                      REFERENCE='NON_DEFINI',),
                   _F(NOEUD='N65',
                      NOM_CMP='TEMP',
                      PRECISION=1.E-2,
                      CHAM_GD=TPR,
                      VALE_CALC=13.649000000,
                      VALE_REFE=13.648999999999999,
                      REFERENCE='NON_DEFINI',),
                   _F(NOEUD='N66',
                      NOM_CMP='TEMP',
                      PRECISION=1.E-2,
                      CHAM_GD=TPR,
                      VALE_CALC=13.649000000,
                      VALE_REFE=13.648999999999999,
                      REFERENCE='NON_DEFINI',),
                   _F(NOEUD='N69',
                      CRITERE='ABSOLU',
                      NOM_CMP='TEMP',
                      PRECISION=1.E-2,
                      CHAM_GD=TPR,
                      VALE_CALC=-9.921346132,
                      VALE_REFE=-9.9209999999999994,
                      REFERENCE='NON_DEFINI',),
                   _F(NOEUD='N70',
                      CRITERE='ABSOLU',
                      NOM_CMP='TEMP',
                      PRECISION=1.E-2,
                      CHAM_GD=TPR,
                      VALE_CALC=-9.921346132,
                      VALE_REFE=-9.9209999999999994,
                      REFERENCE='NON_DEFINI',),
                   _F(NOEUD='N49',
                      CRITERE='ABSOLU',
                      NOM_CMP='TEMP',
                      PRECISION=1.E-2,
                      CHAM_GD=TPR,
                      VALE_CALC=-2.064647853,
                      VALE_REFE=-2.0640000000000001,
                      REFERENCE='NON_DEFINI',),
                   _F(NOEUD='N50',
                      CRITERE='ABSOLU',
                      NOM_CMP='TEMP',
                      PRECISION=1.E-2,
                      CHAM_GD=TPR,
                      VALE_CALC=-2.064647853,
                      VALE_REFE=-2.0640000000000001,
                      REFERENCE='NON_DEFINI',),
                   _F(NOEUD='N57',
                      CRITERE='ABSOLU',
                      NOM_CMP='TEMP',
                      PRECISION=1.E-2,
                      CHAM_GD=TPR,
                      VALE_CALC=5.792082429,
                      VALE_REFE=5.7919999999999998,
                      REFERENCE='NON_DEFINI',),
                   _F(NOEUD='N58',
                      CRITERE='ABSOLU',
                      NOM_CMP='TEMP',
                      PRECISION=1.E-2,
                      CHAM_GD=TPR,
                      VALE_CALC=5.792082429,
                      VALE_REFE=5.7919999999999998,
                      REFERENCE='NON_DEFINI',),
                   _F(NOEUD='N65',
                      CRITERE='ABSOLU',
                      NOM_CMP='TEMP',
                      PRECISION=1.E-2,
                      CHAM_GD=TPR,
                      VALE_CALC=13.649000000,
                      VALE_REFE=13.648999999999999,
                      REFERENCE='NON_DEFINI',),
                   _F(NOEUD='N66',
                      CRITERE='ABSOLU',
                      NOM_CMP='TEMP',
                      PRECISION=1.E-2,
                      CHAM_GD=TPR,
                      VALE_CALC=13.649000000,
                      VALE_REFE=13.648999999999999,
                      REFERENCE='NON_DEFINI',),
                   _F(NOEUD='N133',
                      NOM_CMP='TEMP',
                      PRECISION=1.E-2,
                      CHAM_GD=TPR,
                      VALE_CALC=-17.778037518,
                      VALE_REFE=-17.777999999999999,
                      REFERENCE='NON_DEFINI',),
                   _F(NOEUD='N134',
                      NOM_CMP='TEMP',
                      PRECISION=1.E-2,
                      CHAM_GD=TPR,
                      VALE_CALC=-17.778037518,
                      VALE_REFE=-17.777999999999999,
                      REFERENCE='NON_DEFINI',),
                   _F(NOEUD='N139',
                      NOM_CMP='TEMP',
                      PRECISION=1.E-2,
                      CHAM_GD=TPR,
                      VALE_CALC=-17.778050349,
                      VALE_REFE=-17.777999999999999,
                      REFERENCE='NON_DEFINI',),
                   _F(NOEUD='N140',
                      NOM_CMP='TEMP',
                      PRECISION=1.E-2,
                      CHAM_GD=TPR,
                      VALE_CALC=-17.778050349,
                      VALE_REFE=-17.777999999999999,
                      REFERENCE='NON_DEFINI',),
                   _F(NOEUD='N145',
                      NOM_CMP='TEMP',
                      PRECISION=1.E-2,
                      CHAM_GD=TPR,
                      VALE_CALC=-17.778069944,
                      VALE_REFE=-17.777999999999999,
                      REFERENCE='NON_DEFINI',),
                   _F(NOEUD='N146',
                      NOM_CMP='TEMP',
                      PRECISION=1.E-2,
                      CHAM_GD=TPR,
                      VALE_CALC=-17.778069944,
                      VALE_REFE=-17.777999999999999,
                      REFERENCE='NON_DEFINI',),
                   _F(NOEUD='N155',
                      NOM_CMP='TEMP',
                      PRECISION=1.E-2,
                      CHAM_GD=TPR,
                      VALE_CALC=-17.778000000,
                      VALE_REFE=-17.777999999999999,
                      REFERENCE='NON_DEFINI',),
                   _F(NOEUD='N156',
                      NOM_CMP='TEMP',
                      PRECISION=1.E-2,
                      CHAM_GD=TPR,
                      VALE_CALC=-17.778000000,
                      VALE_REFE=-17.777999999999999,
                      REFERENCE='NON_DEFINI',),
                   _F(NOEUD='N133',
                      CRITERE='ABSOLU',
                      NOM_CMP='TEMP',
                      PRECISION=1.E-2,
                      CHAM_GD=TPR,
                      VALE_CALC=-17.778037518,
                      VALE_REFE=-17.777999999999999,
                      REFERENCE='NON_DEFINI',),
                   _F(NOEUD='N134',
                      CRITERE='ABSOLU',
                      NOM_CMP='TEMP',
                      PRECISION=1.E-2,
                      CHAM_GD=TPR,
                      VALE_CALC=-17.778037518,
                      VALE_REFE=-17.777999999999999,
                      REFERENCE='NON_DEFINI',),
                   _F(NOEUD='N139',
                      CRITERE='ABSOLU',
                      NOM_CMP='TEMP',
                      PRECISION=1.E-2,
                      CHAM_GD=TPR,
                      VALE_CALC=-17.778050349,
                      VALE_REFE=-17.777999999999999,
                      REFERENCE='NON_DEFINI',),
                   _F(NOEUD='N140',
                      CRITERE='ABSOLU',
                      NOM_CMP='TEMP',
                      PRECISION=1.E-2,
                      CHAM_GD=TPR,
                      VALE_CALC=-17.778050349,
                      VALE_REFE=-17.777999999999999,
                      REFERENCE='NON_DEFINI',),
                   _F(NOEUD='N145',
                      CRITERE='ABSOLU',
                      NOM_CMP='TEMP',
                      PRECISION=1.E-2,
                      CHAM_GD=TPR,
                      VALE_CALC=-17.778069944,
                      VALE_REFE=-17.777999999999999,
                      REFERENCE='NON_DEFINI',),
                   _F(NOEUD='N146',
                      CRITERE='ABSOLU',
                      NOM_CMP='TEMP',
                      PRECISION=1.E-2,
                      CHAM_GD=TPR,
                      VALE_CALC=-17.778069944,
                      VALE_REFE=-17.777999999999999,
                      REFERENCE='NON_DEFINI',),
                   _F(NOEUD='N155',
                      CRITERE='ABSOLU',
                      NOM_CMP='TEMP',
                      PRECISION=1.E-2,
                      CHAM_GD=TPR,
                      VALE_CALC=-17.778000000,
                      VALE_REFE=-17.777999999999999,
                      REFERENCE='NON_DEFINI',),
                   _F(NOEUD='N156',
                      CRITERE='ABSOLU',
                      NOM_CMP='TEMP',
                      PRECISION=1.E-2,
                      CHAM_GD=TPR,
                      VALE_CALC=-17.778000000,
                      VALE_REFE=-17.777999999999999,
                      REFERENCE='NON_DEFINI',),
                   _F(NOEUD='N197',
                      NOM_CMP='TEMP',
                      PRECISION=1.E-2,
                      CHAM_GD=TPR,
                      VALE_CALC=-28.889064407,
                      VALE_REFE=-28.888999999999999,
                      REFERENCE='NON_DEFINI',),
                   _F(NOEUD='N198',
                      NOM_CMP='TEMP',
                      PRECISION=1.E-2,
                      CHAM_GD=TPR,
                      VALE_CALC=-28.889064407,
                      VALE_REFE=-28.888999999999999,
                      REFERENCE='NON_DEFINI',),
                   _F(NOEUD='N243',
                      NOM_CMP='TEMP',
                      PRECISION=1.E-2,
                      CHAM_GD=TPR,
                      VALE_CALC=-40.000076844,
                      VALE_REFE=-40.0,
                      REFERENCE='NON_DEFINI',),
                   _F(NOEUD='N244',
                      NOM_CMP='TEMP',
                      PRECISION=1.E-2,
                      CHAM_GD=TPR,
                      VALE_CALC=-40.000076844,
                      VALE_REFE=-40.0,
                      REFERENCE='NON_DEFINI',),
                   _F(NOEUD='N265',
                      NOM_CMP='TEMP',
                      PRECISION=1.E-2,
                      CHAM_GD=TPR,
                      VALE_CALC=-51.111052054,
                      VALE_REFE=-51.110999999999997,
                      REFERENCE='NON_DEFINI',),
                   _F(NOEUD='N266',
                      NOM_CMP='TEMP',
                      PRECISION=1.E-2,
                      CHAM_GD=TPR,
                      VALE_CALC=-51.111052054,
                      VALE_REFE=-51.110999999999997,
                      REFERENCE='NON_DEFINI',),
                   _F(NOEUD='N273',
                      NOM_CMP='TEMP',
                      PRECISION=1.E-2,
                      CHAM_GD=TPR,
                      VALE_CALC=-62.222000000,
                      VALE_REFE=-62.222000000000001,
                      REFERENCE='NON_DEFINI',),
                   _F(NOEUD='N274',
                      NOM_CMP='TEMP',
                      PRECISION=1.E-2,
                      CHAM_GD=TPR,
                      VALE_CALC=-62.222000000,
                      VALE_REFE=-62.222000000000001,
                      REFERENCE='NON_DEFINI',),
                   _F(NOEUD='N197',
                      CRITERE='ABSOLU',
                      NOM_CMP='TEMP',
                      PRECISION=1.E-2,
                      CHAM_GD=TPR,
                      VALE_CALC=-28.889064407,
                      VALE_REFE=-28.888999999999999,
                      REFERENCE='NON_DEFINI',),
                   _F(NOEUD='N198',
                      CRITERE='ABSOLU',
                      NOM_CMP='TEMP',
                      PRECISION=1.E-2,
                      CHAM_GD=TPR,
                      VALE_CALC=-28.889064407,
                      VALE_REFE=-28.888999999999999,
                      REFERENCE='NON_DEFINI',),
                   _F(NOEUD='N243',
                      CRITERE='ABSOLU',
                      NOM_CMP='TEMP',
                      PRECISION=1.E-2,
                      CHAM_GD=TPR,
                      VALE_CALC=-40.000076844,
                      VALE_REFE=-40.0,
                      REFERENCE='NON_DEFINI',),
                   _F(NOEUD='N244',
                      CRITERE='ABSOLU',
                      NOM_CMP='TEMP',
                      PRECISION=1.E-2,
                      CHAM_GD=TPR,
                      VALE_CALC=-40.000076844,
                      VALE_REFE=-40.0,
                      REFERENCE='NON_DEFINI',),
                   _F(NOEUD='N265',
                      CRITERE='ABSOLU',
                      NOM_CMP='TEMP',
                      PRECISION=1.E-2,
                      CHAM_GD=TPR,
                      VALE_CALC=-51.111052054,
                      VALE_REFE=-51.110999999999997,
                      REFERENCE='NON_DEFINI',),
                   _F(NOEUD='N266',
                      CRITERE='ABSOLU',
                      NOM_CMP='TEMP',
                      PRECISION=1.E-2,
                      CHAM_GD=TPR,
                      VALE_CALC=-51.111052054,
                      VALE_REFE=-51.110999999999997,
                      REFERENCE='NON_DEFINI',),
                   _F(NOEUD='N273',
                      CRITERE='ABSOLU',
                      NOM_CMP='TEMP',
                      PRECISION=1.E-2,
                      CHAM_GD=TPR,
                      VALE_CALC=-62.222000000,
                      VALE_REFE=-62.222000000000001,
                      REFERENCE='NON_DEFINI',),
                   _F(NOEUD='N274',
                      CRITERE='ABSOLU',
                      NOM_CMP='TEMP',
                      PRECISION=1.E-2,
                      CHAM_GD=TPR,
                      VALE_CALC=-62.222000000,
                      VALE_REFE=-62.222000000000001,
                      REFERENCE='NON_DEFINI',),
                   ),
          )

FIN()
#
