# ======================================================================
# COPYRIGHT (C) 1991 - 2016  EDF R&D                  WWW.CODE-ASTER.ORG
# THIS PROGRAM IS FREE SOFTWARE; YOU CAN REDISTRIBUTE IT AND/OR MODIFY
# IT UNDER THE TERMS OF THE GNU GENERAL PUBLIC LICENSE AS PUBLISHED BY
# THE FREE SOFTWARE FOUNDATION; EITHER VERSION 2 OF THE LICENSE, OR
# (AT YOUR OPTION) ANY LATER VERSION.
#
# THIS PROGRAM IS DISTRIBUTED IN THE HOPE THAT IT WILL BE USEFUL, BUT
# WITHOUT ANY WARRANTY; WITHOUT EVEN THE IMPLIED WARRANTY OF
# MERCHANTABILITY OR FITNESS FOR A PARTICULAR PURPOSE. SEE THE GNU
# GENERAL PUBLIC LICENSE FOR MORE DETAILS.
#
# YOU SHOULD HAVE RECEIVED A COPY OF THE GNU GENERAL PUBLIC LICENSE
# ALONG WITH THIS PROGRAM; IF NOT, WRITE TO EDF R&D CODE_ASTER,
#    1 AVENUE DU GENERAL DE GAULLE, 92141 CLAMART CEDEX, FRANCE.
# ======================================================================
#
# MAILLES : HEXA20, (ET QUAD8)
#

DEBUT(CODE=_F(NIV_PUB_WEB='INTERNET'),DEBUG=_F(SDVERI='OUI'))

#
# LECTURE DU MAILLAGE --------------------------------------------------
#

MA2=LIRE_MAILLAGE(FORMAT='MED',);

MAIL=CREA_MAILLAGE(MAILLAGE=MA2,
                   HEXA20_27=_F(TOUT='OUI',),);


MAIL=DEFI_GROUP(reuse =MAIL,
                MAILLAGE=MAIL,
                CREA_GROUP_NO=_F(OPTION='PLAN',
                                 NOM='TPR_IMP',
                                 NOEUD_CENTRE='N1',
                                 VECT_NORMALE=(1.,0.,0.,),
                                 PRECISION=1E-4,),);


#
# DEFINITION DES CHARGEMENTS ET DU MATERIAU ----------------------------
#

# ----- MATERIAU


MATER=DEFI_MATERIAU(   THER=_F(  LAMBDA = 43.2675, RHO_CP = 1.) )

#
# AFFECTATIONS: MATERIAU, MODELE, CHARGEMENT ---------------------------
#


CHMAT=AFFE_MATERIAU(   MAILLAGE=MAIL,
                           AFFE=_F(  TOUT = 'OUI',  MATER = MATER)
                        )

MOTH=AFFE_MODELE(   MAILLAGE=MAIL,
                        AFFE=_F(  TOUT = 'OUI',
                               PHENOMENE = 'THERMIQUE',
                               MODELISATION = '3D')
                      )

CHTH=AFFE_CHAR_THER(   MODELE=MOTH,
                           TEMP_IMPO=_F(  GROUP_NO = 'TPR_IMP',  TEMP = 37.78),
                             ECHANGE=_F(  GROUP_MA = 'CONVECT', COEF_H = 5.678,
                                                       TEMP_EXT = -17.78)
                        )

#
# DEFINITION DE LA STRATEGIE DE CALCUL ---------------------------------
#

#
# RESOLUTION -----------------------------------------------------------
#

TEMPE=THER_LINEAIRE(   MODELE=MOTH,
                           CHAM_MATER=CHMAT,
                            EXCIT=_F(  CHARGE = CHTH)
                         )

#
# ANALYSE DES RESULTATS ------------------------------------------------
#

TPR=CREA_CHAMP(  OPERATION='EXTR', TYPE_CHAM='NOEU_TEMP_R',
NOM_CHAM='TEMP', RESULTAT=TEMPE,
                      NUME_ORDRE=0
                    )

TEST_RESU(CHAM_NO=(_F(NOEUD='N1',
                      CRITERE='ABSOLU',
                      NOM_CMP='TEMP',
                      CHAM_GD=TPR,
                      VALE_CALC=37.780000000000001,),
                   _F(NOEUD='NS33',
                      CRITERE='ABSOLU',
                      NOM_CMP='TEMP',
                      CHAM_GD=TPR,
                      VALE_CALC=37.780000000000001,),
                   _F(NOEUD='N8',
                      CRITERE='ABSOLU',
                      NOM_CMP='TEMP',
                      CHAM_GD=TPR,
                      VALE_CALC=37.780000000000001,),
                   _F(NOEUD='N6',
                      CRITERE='ABSOLU',
                      NOM_CMP='TEMP',
                      CHAM_GD=TPR,
                      VALE_CALC=37.780000000000001,),
                   _F(NOEUD='N10',
                      NOM_CMP='TEMP',
                      PRECISION=1.E-2,
                      CHAM_GD=TPR,
                      VALE_CALC=20.295163978,
                      VALE_REFE=20.329000000000001,
                      REFERENCE='NON_DEFINI',),
                   _F(NOEUD='N10',
                      CRITERE='ABSOLU',
                      NOM_CMP='TEMP',
                      PRECISION=0.5,
                      CHAM_GD=TPR,
                      VALE_CALC=20.295163978,
                      VALE_REFE=20.329000000000001,
                      REFERENCE='NON_DEFINI',),
                   _F(NOEUD='N11',
                      NOM_CMP='TEMP',
                      PRECISION=1.E-2,
                      CHAM_GD=TPR,
                      VALE_CALC=20.326895969,
                      VALE_REFE=20.329000000000001,
                      REFERENCE='NON_DEFINI',),
                   _F(NOEUD='N11',
                      CRITERE='ABSOLU',
                      NOM_CMP='TEMP',
                      PRECISION=0.5,
                      CHAM_GD=TPR,
                      VALE_CALC=20.326895969,
                      VALE_REFE=20.329000000000001,
                      REFERENCE='NON_DEFINI',),
                   _F(NOEUD='N12',
                      NOM_CMP='TEMP',
                      PRECISION=1.E-2,
                      CHAM_GD=TPR,
                      VALE_CALC=20.295163978,
                      VALE_REFE=20.329000000000001,
                      REFERENCE='NON_DEFINI',),
                   _F(NOEUD='N12',
                      CRITERE='ABSOLU',
                      NOM_CMP='TEMP',
                      PRECISION=0.5,
                      CHAM_GD=TPR,
                      VALE_CALC=20.295163978,
                      VALE_REFE=20.329000000000001,
                      REFERENCE='NON_DEFINI',),
                   _F(NOEUD='N13',
                      NOM_CMP='TEMP',
                      PRECISION=1.E-2,
                      CHAM_GD=TPR,
                      VALE_CALC=20.326895969,
                      VALE_REFE=20.329000000000001,
                      REFERENCE='NON_DEFINI',),
                   _F(NOEUD='N13',
                      CRITERE='ABSOLU',
                      NOM_CMP='TEMP',
                      PRECISION=0.5,
                      CHAM_GD=TPR,
                      VALE_CALC=20.326895969,
                      VALE_REFE=20.329000000000001,
                      REFERENCE='NON_DEFINI',),
                   _F(NOEUD='N14',
                      NOM_CMP='TEMP',
                      PRECISION=1.E-2,
                      CHAM_GD=TPR,
                      VALE_CALC=20.295163978,
                      VALE_REFE=20.329000000000001,
                      REFERENCE='NON_DEFINI',),
                   _F(NOEUD='N14',
                      CRITERE='ABSOLU',
                      NOM_CMP='TEMP',
                      PRECISION=0.5,
                      CHAM_GD=TPR,
                      VALE_CALC=20.295163978,
                      VALE_REFE=20.329000000000001,
                      REFERENCE='NON_DEFINI',),
                   _F(NOEUD='N15',
                      NOM_CMP='TEMP',
                      PRECISION=1.E-2,
                      CHAM_GD=TPR,
                      VALE_CALC=20.326895969,
                      VALE_REFE=20.329000000000001,
                      REFERENCE='NON_DEFINI',),
                   _F(NOEUD='N15',
                      CRITERE='ABSOLU',
                      NOM_CMP='TEMP',
                      PRECISION=0.5,
                      CHAM_GD=TPR,
                      VALE_CALC=20.326895969,
                      VALE_REFE=20.329000000000001,
                      REFERENCE='NON_DEFINI',),
                   _F(NOEUD='N16',
                      NOM_CMP='TEMP',
                      PRECISION=1.E-2,
                      CHAM_GD=TPR,
                      VALE_CALC=20.295163978,
                      VALE_REFE=20.329000000000001,
                      REFERENCE='NON_DEFINI',),
                   _F(NOEUD='N16',
                      CRITERE='ABSOLU',
                      NOM_CMP='TEMP',
                      PRECISION=0.5,
                      CHAM_GD=TPR,
                      VALE_CALC=20.295163978,
                      VALE_REFE=20.329000000000001,
                      REFERENCE='NON_DEFINI',),
                   _F(NOEUD='N17',
                      NOM_CMP='TEMP',
                      PRECISION=1.E-2,
                      CHAM_GD=TPR,
                      VALE_CALC=20.326895969,
                      VALE_REFE=20.329000000000001,
                      REFERENCE='NON_DEFINI',),
                   _F(NOEUD='N17',
                      CRITERE='ABSOLU',
                      NOM_CMP='TEMP',
                      PRECISION=0.5,
                      CHAM_GD=TPR,
                      VALE_CALC=20.326895969,
                      VALE_REFE=20.329000000000001,
                      REFERENCE='NON_DEFINI',),
                   _F(NOEUD='NS41',
                      NOM_CMP='TEMP',
                      PRECISION=1.E-2,
                      CHAM_GD=TPR,
                      VALE_CALC=20.358654405,
                      VALE_REFE=20.329000000000001,
                      REFERENCE='NON_DEFINI',),
                   _F(NOEUD='NS41',
                      CRITERE='ABSOLU',
                      NOM_CMP='TEMP',
                      PRECISION=0.5,
                      CHAM_GD=TPR,
                      VALE_CALC=20.358654405,
                      VALE_REFE=20.329000000000001,
                      REFERENCE='NON_DEFINI',),
                   ),
          )

#
# FIN ------------------------------------------------------------------
#

FIN()
#
#
