# MODIF  DATE 10/10/2012   AUTEUR COURTOIS M.COURTOIS 
# TITRE PB DE CONVECTION-DIFFUSION AVEC CHANGEMENT DE PHASE 2D - QUAD8
# tplv106a.para = tps_job 60 mem_job 256Mo ncpus 1 liste_test S
#            CONFIGURATION MANAGEMENT OF EDF VERSION
# ======================================================================
# COPYRIGHT (C) 1991 - 2012  EDF R&D                  WWW.CODE-ASTER.ORG
# THIS PROGRAM IS FREE SOFTWARE; YOU CAN REDISTRIBUTE IT AND/OR MODIFY
# IT UNDER THE TERMS OF THE GNU GENERAL PUBLIC LICENSE AS PUBLISHED BY
# THE FREE SOFTWARE FOUNDATION; EITHER VERSION 2 OF THE LICENSE, OR
# (AT YOUR OPTION) ANY LATER VERSION.
#
# THIS PROGRAM IS DISTRIBUTED IN THE HOPE THAT IT WILL BE USEFUL, BUT
# WITHOUT ANY WARRANTY; WITHOUT EVEN THE IMPLIED WARRANTY OF
# MERCHANTABILITY OR FITNESS FOR A PARTICULAR PURPOSE. SEE THE GNU
# GENERAL PUBLIC LICENSE FOR MORE DETAILS.
#
# YOU SHOULD HAVE RECEIVED A COPY OF THE GNU GENERAL PUBLIC LICENSE
# ALONG WITH THIS PROGRAM; IF NOT, WRITE TO EDF R&D CODE_ASTER,
#    1 AVENUE DU GENERAL DE GAULLE, 92141 CLAMART CEDEX, FRANCE.
# ======================================================================
DEBUT(CODE=_F(NOM='TPLV106A',NIV_PUB_WEB='INTERNET'),DEBUG=_F(SDVERI='OUI'))

MAIL=LIRE_MAILLAGE(FORMAT='MED',VERI_MAIL=_F(VERIF='OUI'), )

MAIL=DEFI_GROUP(reuse=MAIL,         MAILLAGE=MAIL,CREA_GROUP_NO=(
                       _F(  GROUP_MA = 'L1'),
                       _F(  GROUP_MA = 'L2'),
                       _F(  GROUP_MA = 'L3'),
                       _F(  GROUP_MA = 'L4')) )

T200=DEFI_CONSTANTE(       VALE=200.0 )

T1000=DEFI_CONSTANTE(      VALE=1000.0 )

CONDUC=DEFI_FONCTION(
       NOM_PARA='TEMP',
       VALE=(    0.0,    150.0,
              1200.0,    150.0, ),
         PROL_DROITE='LINEAIRE',
        PROL_GAUCHE='LINEAIRE'
      )

ENTHAL=DEFI_FONCTION(
       NOM_PARA='TEMP',
       VALE=(    0.0,      0.0,
               585.0,      1.95E9,
               615.0,      4.45E9,
              1215.0,      6.45E9, ),
         PROL_DROITE='LINEAIRE',
        PROL_GAUCHE='LINEAIRE'
      )

ALU=DEFI_MATERIAU( THER_NL=_F(  LAMBDA = CONDUC,
                                  BETA = ENTHAL) )

CHMAT=AFFE_MATERIAU(  MAILLAGE=MAIL,
                AFFE=_F(  TOUT = 'OUI', MATER = ALU) )

MOTH=AFFE_MODELE(  MAILLAGE=MAIL,
                      AFFE=_F( TOUT = 'OUI', MODELISATION = 'PLAN',
                                      PHENOMENE = 'THERMIQUE'))

CHAVI=CREA_CHAMP( OPERATION='AFFE', TYPE_CHAM='NOEU_DEPL_R',
MAILLAGE=MAIL,
   AFFE=_F(  TOUT = 'OUI', NOM_CMP = ('DX', 'DY',), VALE = (0.0001, 0.,)))

CHTH=AFFE_CHAR_THER_F(MODELE=MOTH,TEMP_IMPO=(
                      _F( GROUP_NO = 'L4',  TEMP = T200),
                      _F( GROUP_NO = 'L2',  TEMP = T1000)),
                      CONVECTION=_F( VITESSE = CHAVI)   )

TEMPE=THER_NON_LINE_MO(    MODELE=MOTH,
                            CHAM_MATER=CHMAT,
                                 EXCIT=_F(  CHARGE = CHTH),
                           SOLVEUR=_F( METHODE = 'MULT_FRONT'),
                           CONVERGENCE=_F(  CRIT_TEMP_RELA = 1.E-4,
                                         CRIT_ENTH_RELA = 1.E-4,
                                         ITER_GLOB_MAXI = 130)
                            )

# VALEURS DE REFERENCE:


T_0=CREA_CHAMP( OPERATION='EXTR', TYPE_CHAM='NOEU_TEMP_R',
RESULTAT=TEMPE, NOM_CHAM='TEMP',
                                              NUME_ORDRE=0 )

TEST_RESU(CHAM_NO=(_F(NOEUD='N80',
                      NOM_CMP='TEMP',
                      PRECISION=1.E-2,
                      CHAM_GD=T_0,
                      VALE_CALC=956.884714154,
                      VALE_REFE=956.51499999999999,
                      REFERENCE='NON_DEFINI',),
                   _F(NOEUD='N79',
                      NOM_CMP='TEMP',
                      PRECISION=1.E-2,
                      CHAM_GD=T_0,
                      VALE_CALC=914.888386014,
                      VALE_REFE=914.22199999999998,
                      REFERENCE='NON_DEFINI',),
                   _F(NOEUD='N78',
                      NOM_CMP='TEMP',
                      PRECISION=1.E-2,
                      CHAM_GD=T_0,
                      VALE_CALC=873.982025306,
                      VALE_REFE=873.08699999999999,
                      REFERENCE='NON_DEFINI',),
                   _F(NOEUD='N77',
                      NOM_CMP='TEMP',
                      PRECISION=1.E-2,
                      CHAM_GD=T_0,
                      VALE_CALC=834.137343119,
                      VALE_REFE=833.07899999999995,
                      REFERENCE='NON_DEFINI',),
                   _F(NOEUD='N76',
                      NOM_CMP='TEMP',
                      PRECISION=1.E-2,
                      CHAM_GD=T_0,
                      VALE_CALC=795.326784756,
                      VALE_REFE=794.16700000000003,
                      REFERENCE='NON_DEFINI',),
                   _F(NOEUD='N75',
                      NOM_CMP='TEMP',
                      PRECISION=1.E-2,
                      CHAM_GD=T_0,
                      VALE_CALC=757.523510670,
                      VALE_REFE=756.322,
                      REFERENCE='NON_DEFINI',),
                   _F(NOEUD='N74',
                      NOM_CMP='TEMP',
                      PRECISION=1.E-2,
                      CHAM_GD=T_0,
                      VALE_CALC=720.701377912,
                      VALE_REFE=719.51599999999996,
                      REFERENCE='NON_DEFINI',),
                   _F(NOEUD='N73',
                      NOM_CMP='TEMP',
                      PRECISION=1.E-2,
                      CHAM_GD=T_0,
                      VALE_CALC=684.834922062,
                      VALE_REFE=683.71199999999999,
                      REFERENCE='NON_DEFINI',),
                   _F(NOEUD='N69',
                      NOM_CMP='TEMP',
                      PRECISION=1.E-2,
                      CHAM_GD=T_0,
                      VALE_CALC=576.682798261,
                      VALE_REFE=577.63099999999997,
                      REFERENCE='NON_DEFINI',),
                   _F(NOEUD='N67',
                      NOM_CMP='TEMP',
                      PRECISION=1.E-2,
                      CHAM_GD=T_0,
                      VALE_CALC=553.507444821,
                      VALE_REFE=553.58699999999999,
                      REFERENCE='NON_DEFINI',),
                   _F(NOEUD='N65',
                      NOM_CMP='TEMP',
                      PRECISION=1.E-2,
                      CHAM_GD=T_0,
                      VALE_CALC=531.519447895,
                      VALE_REFE=530.84199999999998,
                      REFERENCE='NON_DEFINI',),
                   _F(NOEUD='N63',
                      NOM_CMP='TEMP',
                      PRECISION=1.E-2,
                      CHAM_GD=T_0,
                      VALE_CALC=510.657975830,
                      VALE_REFE=509.327,
                      REFERENCE='NON_DEFINI',),
                   _F(NOEUD='N61',
                      NOM_CMP='TEMP',
                      PRECISION=1.E-2,
                      CHAM_GD=T_0,
                      VALE_CALC=490.865313017,
                      VALE_REFE=488.97500000000002,
                      REFERENCE='NON_DEFINI',),
                   _F(NOEUD='N59',
                      NOM_CMP='TEMP',
                      PRECISION=1.E-2,
                      CHAM_GD=T_0,
                      VALE_CALC=472.086700626,
                      VALE_REFE=469.72199999999998,
                      REFERENCE='NON_DEFINI',),
                   _F(NOEUD='N57',
                      NOM_CMP='TEMP',
                      PRECISION=1.E-2,
                      CHAM_GD=T_0,
                      VALE_CALC=454.270185235,
                      VALE_REFE=451.50999999999999,
                      REFERENCE='NON_DEFINI',),
                   _F(NOEUD='N49',
                      NOM_CMP='TEMP',
                      PRECISION=1.E-2,
                      CHAM_GD=T_0,
                      VALE_CALC=391.676370831,
                      VALE_REFE=387.98500000000001,
                      REFERENCE='NON_DEFINI',),
                   ),
          )

FIN()
#
