# TITRE CUBE ORTHOTROPE
# ======================================================================
# COPYRIGHT (C) 1991 - 2013  EDF R&D                  WWW.CODE-ASTER.ORG
# THIS PROGRAM IS FREE SOFTWARE; YOU CAN REDISTRIBUTE IT AND/OR MODIFY
# IT UNDER THE TERMS OF THE GNU GENERAL PUBLIC LICENSE AS PUBLISHED BY
# THE FREE SOFTWARE FOUNDATION; EITHER VERSION 2 OF THE LICENSE, OR
# (AT YOUR OPTION) ANY LATER VERSION.
#
# THIS PROGRAM IS DISTRIBUTED IN THE HOPE THAT IT WILL BE USEFUL, BUT
# WITHOUT ANY WARRANTY; WITHOUT EVEN THE IMPLIED WARRANTY OF
# MERCHANTABILITY OR FITNESS FOR A PARTICULAR PURPOSE. SEE THE GNU
# GENERAL PUBLIC LICENSE FOR MORE DETAILS.
#
# YOU SHOULD HAVE RECEIVED A COPY OF THE GNU GENERAL PUBLIC LICENSE
# ALONG WITH THIS PROGRAM; IF NOT, WRITE TO EDF R&D CODE_ASTER,
#    1 AVENUE DU GENERAL DE GAULLE, 92141 CLAMART CEDEX, FRANCE.
# ======================================================================
#
# MAILLES : HEXA8 (ET QUAD4)

DEBUT(CODE=_F(NIV_PUB_WEB='INTERNET'), DEBUG=_F(SDVERI='OUI'))

#
# LECTURE DU MAILLAGE --------------------------------------------------
#


MAIL=LIRE_MAILLAGE(FORMAT='MED', )

MAIL=DEFI_GROUP(   reuse=MAIL,   MAILLAGE=MAIL,
         CREA_GROUP_MA=_F(  NOM = 'TOUT',   TOUT = 'OUI'))

MAIL=DEFI_GROUP(   reuse=MAIL,   MAILLAGE=MAIL,
         CREA_GROUP_NO=( _F(  GROUP_MA='F_RQKL'),_F(  GROUP_MA='F_NRLI')))

#
# DEFINITION DES CHARGEMENTS ET DU MATERIAU ----------------------------
#

# ----- MATERIAU


MATER=DEFI_MATERIAU(   THER_ORTH=_F(  LAMBDA_L = 1.00, LAMBDA_T = 0.75,
                                        LAMBDA_N = 0.50,   RHO_CP = 1.)
                         )

#
# AFFECTATIONS: MATERIAU, MODELE, CHARGEMENT ---------------------------
#


CHMAT=AFFE_MATERIAU(   MAILLAGE=MAIL,
                           AFFE=_F(  TOUT = 'OUI',  MATER = MATER)
                        )

MOTH=AFFE_MODELE(   MAILLAGE=MAIL,
                        AFFE=_F(  TOUT = 'OUI',
                               PHENOMENE = 'THERMIQUE',
                               MODELISATION = '3D')
                      )

ORIEN=AFFE_CARA_ELEM(   MODELE=MOTH,
                            MASSIF=_F(  GROUP_MA = 'TOUT',
                                     ANGL_REP = (0.,0.,0.,))
                         )

FLU_Y=DEFI_FONCTION(  NOM_PARA='Y',
                           VALE=(-0.1E0,  60.E0,
                                  0.1E0, -60.E0, ),
                          INTERPOL='NON'
                          )

FLU_Z=DEFI_FONCTION(  NOM_PARA='Z',
                           VALE=(-0.1E0,  30.E0,
                                  0.1E0, -30.E0, ),
                               INTERPOL='LIN'
                          )

HCV=DEFI_CONSTANTE(   VALE=15.E0 )

TARY0=DEFI_FONCTION(  NOM_PARA='Y',
                           VALE=( 0.0E0,   30.E0,
                                  1.0E0,  -50.E0, ),
                           PROL_DROITE='LINEAIRE',
                          PROL_GAUCHE='LINEAIRE'
                        )

TARY1=DEFI_FONCTION(  NOM_PARA='Y',
                           VALE=( 0.0E0,  -30.E0,
                                  1.0E0, -110.E0, ),
                           PROL_DROITE='LINEAIRE',
                          PROL_GAUCHE='LINEAIRE'
                        )

TEX_ARR=DEFI_NAPPE(  NOM_PARA='Z',
                               PARA=( 0.0E0,   1.0E0, ),
                           FONCTION=( TARY0,    TARY1, ),
                             PROL_DROITE='LINEAIRE',
                            PROL_GAUCHE='LINEAIRE'
                          )

TAVY0=DEFI_FONCTION(  NOM_PARA='Y',
                           VALE=( 0.0E0,   15.E0,
                                  1.0E0,  -65.E0, ),
                           PROL_DROITE='LINEAIRE',
                          PROL_GAUCHE='LINEAIRE'
                        )

TAVY1=DEFI_FONCTION(  NOM_PARA='Y',
                           VALE=( 0.0E0,  -45.E0,
                                  1.0E0, -125.E0, ),
                           PROL_DROITE='LINEAIRE',
                          PROL_GAUCHE='LINEAIRE'
                        )

TEX_AVA=DEFI_NAPPE(  NOM_PARA='Z',
                               PARA=( 0.0E0,   1.0E0, ),
                           FONCTION=( TAVY0,    TAVY1, ),
                             PROL_DROITE='LINEAIRE',
                            PROL_GAUCHE='LINEAIRE'
                          )

CHTH=AFFE_CHAR_THER_F(   MODELE=MOTH,FLUX_REP=(
                            _F(  GROUP_MA = 'F_NPJI',   FLUN = FLU_Y),
                            _F(  GROUP_MA = 'F_RQKL',   FLUN = FLU_Y),
                            _F(  GROUP_MA = 'F_NPQR',   FLUN = FLU_Z),
                            _F(  GROUP_MA = 'F_IJKL',   FLUN = FLU_Z)),ECHANGE=(
                             _F(  GROUP_MA = 'F_NRLI', COEF_H = HCV,
                                                     TEMP_EXT = TEX_ARR),
                             _F(  GROUP_MA = 'F_PQKJ', COEF_H = HCV,
                                                     TEMP_EXT = TEX_AVA))
                        )

#
# DEFINITION DE LA STRATEGIE DE CALCUL ---------------------------------
#

#
# RESOLUTION -----------------------------------------------------------
#

TEMPE=THER_LINEAIRE(   MODELE=MOTH,
                           CHAM_MATER=CHMAT,
                            EXCIT=_F(  CHARGE = CHTH),
                            CARA_ELEM=ORIEN
                         )

#
# ANALYSE DES RESULTATS ------------------------------------------------
#


TEMPE=CALC_CHAMP(reuse=TEMPE,RESULTAT=TEMPE,THERMIQUE=('FLUX_ELNO','FLUX_ELGA','FLUX_NOEU',))


# ----------------------------------------------------------------------
# VALIDATION DU CALCUL D'INTEGRALE SUR UN BORD 2D

FLUX=CREA_CHAMP(TYPE_CHAM='NOEU_FLUX_R',
                OPERATION='EXTR',
                RESULTAT=TEMPE,
                NOM_CHAM='FLUX_NOEU',);

CHNORM=CREA_CHAMP(TYPE_CHAM='NOEU_GEOM_R',
                  OPERATION='NORMALE',
                  MODELE=MOTH,
                  GROUP_MA='F_NPJI',
                  );

FO_FLUN=FORMULE(NOM_PARA=('FLUX','FLUY','FLUZ','X','Y','Z',),
                VALE='FLUX*X+FLUY*Y+FLUZ*Z',);

FLUN_F=CREA_CHAMP(TYPE_CHAM='NOEU_NEUT_F',
                  OPERATION='AFFE',
                  MODELE=MOTH,
                  AFFE=_F(GROUP_MA='F_NPJI',
                          VALE_F=FO_FLUN,
                          NOM_CMP='X1',),);

FLUN_N=CREA_CHAMP(TYPE_CHAM='NOEU_NEUT_R',
                  OPERATION='EVAL',
                  CHAM_F=FLUN_F,
                  CHAM_PARA=(FLUX,CHNORM),);

FL_NPJI=POST_ELEM(INTEGRALE=_F(GROUP_MA='F_NPJI',
                              NOM_CMP='X1',),
                  CHAM_GD=FLUN_N,
                  MODELE=MOTH,
                  CHAM_MATER=CHMAT,);

IMPR_TABLE(TABLE=FL_NPJI,);

TEST_TABLE(TABLE=FL_NPJI,
           NOM_PARA='MOYE_X1',
           VALE_REFE=-60,
           REFERENCE='ANALYTIQUE',
           VALE_CALC=-60,
           );

# ----------------------------------------------------------------------

TABTE1=MACR_LIGN_COUPE(   RESULTAT    = TEMPE,
                   LIGN_COUPE  = ( _F( NB_POINTS  = 11,
                                       COOR_ORIG  = (-0.1,-0.1,-0.1),
                                       COOR_EXTR  = ( 0.1, 0.1, 0.1), ),
                                   _F( TYPE      = 'GROUP_NO',
                                       GROUP_NO  = 'F_RQKL',) )
                     )

IMPR_TABLE(TABLE=TABTE1)

TEST_RESU(RESU=(_F(NUME_ORDRE=0,
                   RESULTAT=TEMPE,
                   NOM_CHAM='TEMP',
                   NOEUD='N169',
                   NOM_CMP='TEMP',
                   VALE_CALC=22.500000253,
                   VALE_REFE=22.5,
                   REFERENCE='NON_DEFINI',
                   PRECISION=5.0000000000000001E-3,),
                _F(NUME_ORDRE=0,
                   RESULTAT=TEMPE,
                   NOM_CHAM='TEMP',
                   NOEUD='N169',
                   NOM_CMP='TEMP',
                   VALE_CALC=22.500000253,
                   VALE_REFE=22.5,
                   REFERENCE='NON_DEFINI',
                   CRITERE='ABSOLU',
                   PRECISION=0.050000000000000003,),
                _F(NUME_ORDRE=0,
                   RESULTAT=TEMPE,
                   NOM_CHAM='TEMP',
                   NOEUD='N5',
                   NOM_CMP='TEMP',
                   VALE_CALC=35.000000105,
                   VALE_REFE=35.0,
                   REFERENCE='NON_DEFINI',
                   PRECISION=5.0000000000000001E-3,),
                _F(NUME_ORDRE=0,
                   RESULTAT=TEMPE,
                   NOM_CHAM='TEMP',
                   NOEUD='N5',
                   NOM_CMP='TEMP',
                   VALE_CALC=35.000000105,
                   VALE_REFE=35.0,
                   REFERENCE='NON_DEFINI',
                   CRITERE='ABSOLU',
                   PRECISION=0.050000000000000003,),
                _F(NUME_ORDRE=0,
                   RESULTAT=TEMPE,
                   NOM_CHAM='TEMP',
                   NOEUD='N301',
                   NOM_CMP='TEMP',
                   VALE_CALC=25.999999931,
                   VALE_REFE=26.0,
                   REFERENCE='NON_DEFINI',
                   PRECISION=5.0000000000000001E-3,),
                _F(NUME_ORDRE=0,
                   RESULTAT=TEMPE,
                   NOM_CHAM='TEMP',
                   NOEUD='N301',
                   NOM_CMP='TEMP',
                   VALE_CALC=25.999999931,
                   VALE_REFE=26.0,
                   REFERENCE='NON_DEFINI',
                   CRITERE='ABSOLU',
                   PRECISION=0.050000000000000003,),
                _F(NUME_ORDRE=0,
                   RESULTAT=TEMPE,
                   NOM_CHAM='TEMP',
                   NOEUD='N337',
                   NOM_CMP='TEMP',
                   VALE_CALC=9.999999924,
                   VALE_REFE=10.0,
                   REFERENCE='NON_DEFINI',
                   PRECISION=5.0000000000000001E-3,),
                _F(NUME_ORDRE=0,
                   RESULTAT=TEMPE,
                   NOM_CHAM='TEMP',
                   NOEUD='N337',
                   NOM_CMP='TEMP',
                   VALE_CALC=9.999999924,
                   VALE_REFE=10.0,
                   REFERENCE='NON_DEFINI',
                   CRITERE='ABSOLU',
                   PRECISION=0.050000000000000003,),
                _F(NUME_ORDRE=0,
                   RESULTAT=TEMPE,
                   NOM_CHAM='TEMP',
                   NOEUD='N49',
                   NOM_CMP='TEMP',
                   VALE_CALC=19.000000102,
                   VALE_REFE=19.0,
                   REFERENCE='NON_DEFINI',
                   PRECISION=5.0000000000000001E-3,),
                _F(NUME_ORDRE=0,
                   RESULTAT=TEMPE,
                   NOM_CHAM='TEMP',
                   NOEUD='N49',
                   NOM_CMP='TEMP',
                   VALE_CALC=19.000000102,
                   VALE_REFE=19.0,
                   REFERENCE='NON_DEFINI',
                   CRITERE='ABSOLU',
                   PRECISION=0.050000000000000003,),
                _F(NUME_ORDRE=0,
                   RESULTAT=TEMPE,
                   NOM_CHAM='TEMP',
                   NOEUD='N151',
                   NOM_CMP='TEMP',
                   VALE_CALC=30.500000257,
                   VALE_REFE=30.5,
                   REFERENCE='NON_DEFINI',
                   PRECISION=5.0000000000000001E-3,),
                _F(NUME_ORDRE=0,
                   RESULTAT=TEMPE,
                   NOM_CHAM='TEMP',
                   NOEUD='N151',
                   NOM_CMP='TEMP',
                   VALE_CALC=30.500000257,
                   VALE_REFE=30.5,
                   REFERENCE='NON_DEFINI',
                   CRITERE='ABSOLU',
                   PRECISION=0.050000000000000003,),
                _F(NUME_ORDRE=0,
                   RESULTAT=TEMPE,
                   NOM_CHAM='TEMP',
                   NOEUD='N316',
                   NOM_CMP='TEMP',
                   VALE_CALC=17.999999928,
                   VALE_REFE=18.0,
                   REFERENCE='NON_DEFINI',
                   PRECISION=5.0000000000000001E-3,),
                _F(NUME_ORDRE=0,
                   RESULTAT=TEMPE,
                   NOM_CHAM='TEMP',
                   NOEUD='N316',
                   NOM_CMP='TEMP',
                   VALE_CALC=17.999999928,
                   VALE_REFE=18.0,
                   REFERENCE='NON_DEFINI',
                   CRITERE='ABSOLU',
                   PRECISION=0.050000000000000003,),
                _F(NUME_ORDRE=0,
                   RESULTAT=TEMPE,
                   NOM_CHAM='TEMP',
                   NOEUD='N196',
                   NOM_CMP='TEMP',
                   VALE_CALC=14.500000249,
                   VALE_REFE=14.5,
                   REFERENCE='NON_DEFINI',
                   PRECISION=5.0000000000000001E-3,),
                _F(NUME_ORDRE=0,
                   RESULTAT=TEMPE,
                   NOM_CHAM='TEMP',
                   NOEUD='N196',
                   NOM_CMP='TEMP',
                   VALE_CALC=14.500000249,
                   VALE_REFE=14.5,
                   REFERENCE='NON_DEFINI',
                   CRITERE='ABSOLU',
                   PRECISION=0.050000000000000003,),
                _F(NUME_ORDRE=0,
                   RESULTAT=TEMPE,
                   NOM_CHAM='TEMP',
                   NOEUD='N24',
                   NOM_CMP='TEMP',
                   VALE_CALC=27.000000103,
                   VALE_REFE=27.0,
                   REFERENCE='NON_DEFINI',
                   PRECISION=5.0000000000000001E-3,),
                _F(NUME_ORDRE=0,
                   RESULTAT=TEMPE,
                   NOM_CHAM='TEMP',
                   NOEUD='N24',
                   NOM_CMP='TEMP',
                   VALE_CALC=27.000000103,
                   VALE_REFE=27.0,
                   REFERENCE='NON_DEFINI',
                   CRITERE='ABSOLU',
                   PRECISION=0.050000000000000003,),
                _F(NUME_ORDRE=0,
                   RESULTAT=TEMPE,
                   NOM_CHAM='TEMP',
                   NOEUD='N1',
                   NOM_CMP='TEMP',
                   VALE_CALC=29.000000116,
                   VALE_REFE=29.0,
                   REFERENCE='NON_DEFINI',
                   PRECISION=5.0000000000000001E-3,),
                _F(NUME_ORDRE=0,
                   RESULTAT=TEMPE,
                   NOM_CHAM='TEMP',
                   NOEUD='N1',
                   NOM_CMP='TEMP',
                   VALE_CALC=29.000000116,
                   VALE_REFE=29.0,
                   REFERENCE='NON_DEFINI',
                   CRITERE='ABSOLU',
                   PRECISION=0.050000000000000003,),
                _F(NUME_ORDRE=0,
                   RESULTAT=TEMPE,
                   NOM_CHAM='TEMP',
                   NOEUD='N298',
                   NOM_CMP='TEMP',
                   VALE_CALC=20.000000524,
                   VALE_REFE=20.0,
                   REFERENCE='NON_DEFINI',
                   PRECISION=5.0000000000000001E-3,),
                _F(NUME_ORDRE=0,
                   RESULTAT=TEMPE,
                   NOM_CHAM='TEMP',
                   NOEUD='N298',
                   NOM_CMP='TEMP',
                   VALE_CALC=20.000000524,
                   VALE_REFE=20.0,
                   REFERENCE='NON_DEFINI',
                   CRITERE='ABSOLU',
                   PRECISION=0.050000000000000003,),
                _F(NUME_ORDRE=0,
                   RESULTAT=TEMPE,
                   NOM_CHAM='TEMP',
                   NOEUD='N340',
                   NOM_CMP='TEMP',
                   VALE_CALC=3.999999959,
                   VALE_REFE=4.0,
                   REFERENCE='NON_DEFINI',
                   PRECISION=5.0000000000000001E-3,),
                _F(NUME_ORDRE=0,
                   RESULTAT=TEMPE,
                   NOM_CHAM='TEMP',
                   NOEUD='N340',
                   NOM_CMP='TEMP',
                   VALE_CALC=3.999999959,
                   VALE_REFE=4.0,
                   REFERENCE='NON_DEFINI',
                   CRITERE='ABSOLU',
                   PRECISION=0.050000000000000003,),
                _F(NUME_ORDRE=0,
                   RESULTAT=TEMPE,
                   NOM_CHAM='TEMP',
                   NOEUD='N44',
                   NOM_CMP='TEMP',
                   VALE_CALC=13.000000109,
                   VALE_REFE=13.0,
                   REFERENCE='NON_DEFINI',
                   PRECISION=5.0000000000000001E-3,),
                _F(NUME_ORDRE=0,
                   RESULTAT=TEMPE,
                   NOM_CHAM='TEMP',
                   NOEUD='N44',
                   NOM_CMP='TEMP',
                   VALE_CALC=13.000000109,
                   VALE_REFE=13.0,
                   REFERENCE='NON_DEFINI',
                   CRITERE='ABSOLU',
                   PRECISION=0.050000000000000003,),
                _F(NUME_ORDRE=0,
                   RESULTAT=TEMPE,
                   NOM_CHAM='TEMP',
                   NOEUD='N172',
                   NOM_CMP='TEMP',
                   VALE_CALC=16.500000295,
                   VALE_REFE=16.5,
                   REFERENCE='NON_DEFINI',
                   PRECISION=5.0000000000000001E-3,),
                _F(NUME_ORDRE=0,
                   RESULTAT=TEMPE,
                   NOM_CHAM='TEMP',
                   NOEUD='N172',
                   NOM_CMP='TEMP',
                   VALE_CALC=16.500000295,
                   VALE_REFE=16.5,
                   REFERENCE='NON_DEFINI',
                   CRITERE='ABSOLU',
                   PRECISION=0.050000000000000003,),
                _F(NUME_ORDRE=0,
                   RESULTAT=TEMPE,
                   NOM_CHAM='TEMP',
                   NOEUD='N2',
                   NOM_CMP='TEMP',
                   VALE_CALC=41.000000097,
                   VALE_REFE=41.0,
                   REFERENCE='NON_DEFINI',
                   PRECISION=5.0000000000000001E-3,),
                _F(NUME_ORDRE=0,
                   RESULTAT=TEMPE,
                   NOM_CHAM='TEMP',
                   NOEUD='N2',
                   NOM_CMP='TEMP',
                   VALE_CALC=41.000000097,
                   VALE_REFE=41.0,
                   REFERENCE='NON_DEFINI',
                   CRITERE='ABSOLU',
                   PRECISION=0.050000000000000003,),
                _F(NUME_ORDRE=0,
                   RESULTAT=TEMPE,
                   NOM_CHAM='TEMP',
                   NOEUD='N297',
                   NOM_CMP='TEMP',
                   VALE_CALC=31.999999918,
                   VALE_REFE=32.0,
                   REFERENCE='NON_DEFINI',
                   PRECISION=5.0000000000000001E-3,),
                _F(NUME_ORDRE=0,
                   RESULTAT=TEMPE,
                   NOM_CHAM='TEMP',
                   NOEUD='N297',
                   NOM_CMP='TEMP',
                   VALE_CALC=31.999999918,
                   VALE_REFE=32.0,
                   REFERENCE='NON_DEFINI',
                   CRITERE='ABSOLU',
                   PRECISION=0.050000000000000003,),
                _F(NUME_ORDRE=0,
                   RESULTAT=TEMPE,
                   NOM_CHAM='TEMP',
                   NOEUD='N338',
                   NOM_CMP='TEMP',
                   VALE_CALC=15.999999917,
                   VALE_REFE=16.0,
                   REFERENCE='NON_DEFINI',
                   PRECISION=5.0000000000000001E-3,),
                _F(NUME_ORDRE=0,
                   RESULTAT=TEMPE,
                   NOM_CHAM='TEMP',
                   NOEUD='N338',
                   NOM_CMP='TEMP',
                   VALE_CALC=15.999999917,
                   VALE_REFE=16.0,
                   REFERENCE='NON_DEFINI',
                   CRITERE='ABSOLU',
                   PRECISION=0.050000000000000003,),
                _F(NUME_ORDRE=0,
                   RESULTAT=TEMPE,
                   NOM_CHAM='TEMP',
                   NOEUD='N43',
                   NOM_CMP='TEMP',
                   VALE_CALC=25.000000097,
                   VALE_REFE=25.0,
                   REFERENCE='NON_DEFINI',
                   PRECISION=5.0000000000000001E-3,),
                _F(NUME_ORDRE=0,
                   RESULTAT=TEMPE,
                   NOM_CHAM='TEMP',
                   NOEUD='N43',
                   NOM_CMP='TEMP',
                   VALE_CALC=25.000000097,
                   VALE_REFE=25.0,
                   REFERENCE='NON_DEFINI',
                   CRITERE='ABSOLU',
                   PRECISION=0.050000000000000003,),
                _F(NUME_ORDRE=0,
                   RESULTAT=TEMPE,
                   NOM_CHAM='TEMP',
                   NOEUD='N173',
                   NOM_CMP='TEMP',
                   VALE_CALC=28.500000238,
                   VALE_REFE=28.5,
                   REFERENCE='NON_DEFINI',
                   PRECISION=5.0000000000000001E-3,),
                _F(NUME_ORDRE=0,
                   RESULTAT=TEMPE,
                   NOM_CHAM='TEMP',
                   NOEUD='N173',
                   NOM_CMP='TEMP',
                   VALE_CALC=28.500000238,
                   VALE_REFE=28.5,
                   REFERENCE='NON_DEFINI',
                   CRITERE='ABSOLU',
                   PRECISION=0.050000000000000003,),
                _F(NUME_ORDRE=0,
                   RESULTAT=TEMPE,
                   NOM_CHAM='FLUX_ELNO',
                   NOEUD='N340',
                   NOM_CMP='FLUX',
                   VALE_CALC=44.999998346,
                   VALE_REFE=45.0,
                   REFERENCE='NON_DEFINI',
                   PRECISION=1.E-2,
                   MAILLE='M211',),
                _F(NUME_ORDRE=0,
                   RESULTAT=TEMPE,
                   NOM_CHAM='FLUX_ELNO',
                   NOEUD='N340',
                   NOM_CMP='FLUX',
                   VALE_CALC=44.999998346,
                   VALE_REFE=45.0,
                   REFERENCE='NON_DEFINI',
                   CRITERE='ABSOLU',
                   PRECISION=0.5,
                   MAILLE='M211',),
                _F(NUME_ORDRE=0,
                   RESULTAT=TEMPE,
                   NOM_CHAM='FLUX_ELNO',
                   NOEUD='N340',
                   NOM_CMP='FLUY',
                   VALE_CALC=59.999997782,
                   VALE_REFE=60.0,
                   REFERENCE='NON_DEFINI',
                   PRECISION=1.E-2,
                   MAILLE='M211',),
                _F(NUME_ORDRE=0,
                   RESULTAT=TEMPE,
                   NOM_CHAM='FLUX_ELNO',
                   NOEUD='N340',
                   NOM_CMP='FLUY',
                   VALE_CALC=59.999997782,
                   VALE_REFE=60.0,
                   REFERENCE='NON_DEFINI',
                   CRITERE='ABSOLU',
                   PRECISION=0.5,
                   MAILLE='M211',),
                _F(NUME_ORDRE=0,
                   RESULTAT=TEMPE,
                   NOM_CHAM='FLUX_ELNO',
                   NOEUD='N340',
                   NOM_CMP='FLUZ',
                   VALE_CALC=29.999999624,
                   VALE_REFE=30.0,
                   REFERENCE='NON_DEFINI',
                   PRECISION=1.E-2,
                   MAILLE='M211',),
                _F(NUME_ORDRE=0,
                   RESULTAT=TEMPE,
                   NOM_CHAM='FLUX_ELNO',
                   NOEUD='N340',
                   NOM_CMP='FLUZ',
                   VALE_CALC=29.999999624,
                   VALE_REFE=30.0,
                   REFERENCE='NON_DEFINI',
                   CRITERE='ABSOLU',
                   PRECISION=0.5,
                   MAILLE='M211',),
                _F(NUME_ORDRE=0,
                   RESULTAT=TEMPE,
                   NOM_CHAM='FLUX_ELNO',
                   NOEUD='N337',
                   NOM_CMP='FLUX',
                   VALE_CALC=44.999998845,
                   VALE_REFE=45.0,
                   REFERENCE='NON_DEFINI',
                   PRECISION=1.E-2,
                   MAILLE='M199',),
                _F(NUME_ORDRE=0,
                   RESULTAT=TEMPE,
                   NOM_CHAM='FLUX_ELNO',
                   NOEUD='N337',
                   NOM_CMP='FLUX',
                   VALE_CALC=44.999998845,
                   VALE_REFE=45.0,
                   REFERENCE='NON_DEFINI',
                   CRITERE='ABSOLU',
                   PRECISION=0.5,
                   MAILLE='M199',),
                _F(NUME_ORDRE=0,
                   RESULTAT=TEMPE,
                   NOM_CHAM='FLUX_ELNO',
                   NOEUD='N337',
                   NOM_CMP='FLUY',
                   VALE_CALC=60.000000033,
                   VALE_REFE=60.0,
                   REFERENCE='NON_DEFINI',
                   PRECISION=1.E-2,
                   MAILLE='M199',),
                _F(NUME_ORDRE=0,
                   RESULTAT=TEMPE,
                   NOM_CHAM='FLUX_ELNO',
                   NOEUD='N337',
                   NOM_CMP='FLUY',
                   VALE_CALC=60.000000033,
                   VALE_REFE=60.0,
                   REFERENCE='NON_DEFINI',
                   CRITERE='ABSOLU',
                   PRECISION=0.5,
                   MAILLE='M199',),
                _F(NUME_ORDRE=0,
                   RESULTAT=TEMPE,
                   NOM_CHAM='FLUX_ELNO',
                   NOEUD='N337',
                   NOM_CMP='FLUZ',
                   VALE_CALC=29.999999825,
                   VALE_REFE=30.0,
                   REFERENCE='NON_DEFINI',
                   PRECISION=1.E-2,
                   MAILLE='M199',),
                _F(NUME_ORDRE=0,
                   RESULTAT=TEMPE,
                   NOM_CHAM='FLUX_ELNO',
                   NOEUD='N337',
                   NOM_CMP='FLUZ',
                   VALE_CALC=29.999999825,
                   VALE_REFE=30.0,
                   REFERENCE='NON_DEFINI',
                   CRITERE='ABSOLU',
                   PRECISION=0.5,
                   MAILLE='M199',),
                _F(NUME_ORDRE=0,
                   RESULTAT=TEMPE,
                   NOM_CHAM='FLUX_ELNO',
                   NOEUD='N316',
                   NOM_CMP='FLUX',
                   VALE_CALC=44.999998887,
                   VALE_REFE=45.0,
                   REFERENCE='NON_DEFINI',
                   PRECISION=1.E-2,
                   MAILLE='M201',),
                _F(NUME_ORDRE=0,
                   RESULTAT=TEMPE,
                   NOM_CHAM='FLUX_ELNO',
                   NOEUD='N316',
                   NOM_CMP='FLUX',
                   VALE_CALC=44.999998887,
                   VALE_REFE=45.0,
                   REFERENCE='NON_DEFINI',
                   CRITERE='ABSOLU',
                   PRECISION=0.5,
                   MAILLE='M201',),
                _F(NUME_ORDRE=0,
                   RESULTAT=TEMPE,
                   NOM_CHAM='FLUX_ELNO',
                   NOEUD='N316',
                   NOM_CMP='FLUY',
                   VALE_CALC=60.000000033,
                   VALE_REFE=60.0,
                   REFERENCE='NON_DEFINI',
                   PRECISION=1.E-2,
                   MAILLE='M201',),
                _F(NUME_ORDRE=0,
                   RESULTAT=TEMPE,
                   NOM_CHAM='FLUX_ELNO',
                   NOEUD='N316',
                   NOM_CMP='FLUY',
                   VALE_CALC=60.000000033,
                   VALE_REFE=60.0,
                   REFERENCE='NON_DEFINI',
                   CRITERE='ABSOLU',
                   PRECISION=0.5,
                   MAILLE='M201',),
                _F(NUME_ORDRE=0,
                   RESULTAT=TEMPE,
                   NOM_CHAM='FLUX_ELNO',
                   NOEUD='N316',
                   NOM_CMP='FLUZ',
                   VALE_CALC=29.999999741,
                   VALE_REFE=30.0,
                   REFERENCE='NON_DEFINI',
                   PRECISION=1.E-2,
                   MAILLE='M201',),
                _F(NUME_ORDRE=0,
                   RESULTAT=TEMPE,
                   NOM_CHAM='FLUX_ELNO',
                   NOEUD='N316',
                   NOM_CMP='FLUZ',
                   VALE_CALC=29.999999741,
                   VALE_REFE=30.0,
                   REFERENCE='NON_DEFINI',
                   CRITERE='ABSOLU',
                   PRECISION=0.5,
                   MAILLE='M201',),
                _F(NUME_ORDRE=0,
                   RESULTAT=TEMPE,
                   NOM_CHAM='FLUX_ELNO',
                   NOEUD='N169',
                   NOM_CMP='FLUX',
                   VALE_CALC=44.999998634,
                   VALE_REFE=45.0,
                   REFERENCE='NON_DEFINI',
                   PRECISION=1.E-2,
                   MAILLE='M129',),
                _F(NUME_ORDRE=0,
                   RESULTAT=TEMPE,
                   NOM_CHAM='FLUX_ELNO',
                   NOEUD='N169',
                   NOM_CMP='FLUX',
                   VALE_CALC=44.999998634,
                   VALE_REFE=45.0,
                   REFERENCE='NON_DEFINI',
                   CRITERE='ABSOLU',
                   PRECISION=0.5,
                   MAILLE='M129',),
                _F(NUME_ORDRE=0,
                   RESULTAT=TEMPE,
                   NOM_CHAM='FLUX_ELNO',
                   NOEUD='N169',
                   NOM_CMP='FLUY',
                   VALE_CALC=60.000000047,
                   VALE_REFE=60.0,
                   REFERENCE='NON_DEFINI',
                   PRECISION=1.E-2,
                   MAILLE='M129',),
                _F(NUME_ORDRE=0,
                   RESULTAT=TEMPE,
                   NOM_CHAM='FLUX_ELNO',
                   NOEUD='N169',
                   NOM_CMP='FLUY',
                   VALE_CALC=60.000000047,
                   VALE_REFE=60.0,
                   REFERENCE='NON_DEFINI',
                   CRITERE='ABSOLU',
                   PRECISION=0.5,
                   MAILLE='M129',),
                _F(NUME_ORDRE=0,
                   RESULTAT=TEMPE,
                   NOM_CHAM='FLUX_ELNO',
                   NOEUD='N169',
                   NOM_CMP='FLUZ',
                   VALE_CALC=29.999999776,
                   VALE_REFE=30.0,
                   REFERENCE='NON_DEFINI',
                   PRECISION=1.E-2,
                   MAILLE='M129',),
                _F(NUME_ORDRE=0,
                   RESULTAT=TEMPE,
                   NOM_CHAM='FLUX_ELNO',
                   NOEUD='N169',
                   NOM_CMP='FLUZ',
                   VALE_CALC=29.999999776,
                   VALE_REFE=30.0,
                   REFERENCE='NON_DEFINI',
                   CRITERE='ABSOLU',
                   PRECISION=0.5,
                   MAILLE='M129',),
                _F(NUME_ORDRE=0,
                   POINT=1,
                   RESULTAT=TEMPE,
                   NOM_CHAM='FLUX_ELNO',
                   NOM_CMP='FLUX',
                   VALE_CALC=44.999998638,
                   VALE_REFE=45.0,
                   REFERENCE='NON_DEFINI',
                   PRECISION=1.E-2,
                   MAILLE='M129',),
                _F(NUME_ORDRE=0,
                   POINT=1,
                   RESULTAT=TEMPE,
                   NOM_CHAM='FLUX_ELGA',
                   NOM_CMP='FLUX',
                   VALE_CALC=44.999998623,
                   VALE_REFE=45.0,
                   REFERENCE='NON_DEFINI',
                   PRECISION=1.E-2,
                   MAILLE='M129',),
                _F(NUME_ORDRE=0,
                   POINT=1,
                   RESULTAT=TEMPE,
                   NOM_CHAM='FLUX_ELGA',
                   NOM_CMP='FLUY',
                   VALE_CALC=60.000000059,
                   VALE_REFE=60.0,
                   REFERENCE='NON_DEFINI',
                   PRECISION=1.E-2,
                   MAILLE='M129',),
                _F(NUME_ORDRE=0,
                   POINT=1,
                   RESULTAT=TEMPE,
                   NOM_CHAM='FLUX_ELGA',
                   NOM_CMP='FLUY',
                   VALE_CALC=60.000000059,
                   VALE_REFE=60.0,
                   REFERENCE='NON_DEFINI',
                   PRECISION=1.E-2,
                   MAILLE='M129',),
                _F(NUME_ORDRE=0,
                   POINT=1,
                   RESULTAT=TEMPE,
                   NOM_CHAM='FLUX_ELGA',
                   NOM_CMP='FLUZ',
                   VALE_CALC=29.999999794,
                   VALE_REFE=30.0,
                   REFERENCE='NON_DEFINI',
                   PRECISION=1.E-2,
                   MAILLE='M129',),
                _F(NUME_ORDRE=0,
                   POINT=1,
                   RESULTAT=TEMPE,
                   NOM_CHAM='FLUX_ELGA',
                   NOM_CMP='FLUZ',
                   VALE_CALC=29.999999794,
                   VALE_REFE=30.0,
                   REFERENCE='NON_DEFINI',
                   PRECISION=1.E-2,
                   MAILLE='M129',),
                _F(NUME_ORDRE=0,
                   POINT=2,
                   RESULTAT=TEMPE,
                   NOM_CHAM='FLUX_ELGA',
                   NOM_CMP='FLUX',
                   VALE_CALC=44.999998623,
                   VALE_REFE=45.0,
                   REFERENCE='NON_DEFINI',
                   PRECISION=1.E-2,
                   MAILLE='M129',),
                _F(NUME_ORDRE=0,
                   POINT=3,
                   RESULTAT=TEMPE,
                   NOM_CHAM='FLUX_ELGA',
                   NOM_CMP='FLUX',
                   VALE_CALC=44.999998615,
                   VALE_REFE=45.0,
                   REFERENCE='NON_DEFINI',
                   PRECISION=1.E-2,
                   MAILLE='M129',),
                _F(NUME_ORDRE=0,
                   POINT=4,
                   RESULTAT=TEMPE,
                   NOM_CHAM='FLUX_ELGA',
                   NOM_CMP='FLUX',
                   VALE_CALC=44.999998615,
                   VALE_REFE=45.0,
                   REFERENCE='NON_DEFINI',
                   PRECISION=1.E-2,
                   MAILLE='M129',),
                _F(NUME_ORDRE=0,
                   POINT=5,
                   RESULTAT=TEMPE,
                   NOM_CHAM='FLUX_ELGA',
                   NOM_CMP='FLUX',
                   VALE_CALC=44.999998586,
                   VALE_REFE=45.0,
                   REFERENCE='NON_DEFINI',
                   PRECISION=1.E-2,
                   MAILLE='M129',),
                _F(NUME_ORDRE=0,
                   POINT=6,
                   RESULTAT=TEMPE,
                   NOM_CHAM='FLUX_ELGA',
                   NOM_CMP='FLUX',
                   VALE_CALC=44.999998586,
                   VALE_REFE=45.0,
                   REFERENCE='NON_DEFINI',
                   PRECISION=1.E-2,
                   MAILLE='M129',),
                _F(NUME_ORDRE=0,
                   POINT=7,
                   RESULTAT=TEMPE,
                   NOM_CHAM='FLUX_ELGA',
                   NOM_CMP='FLUX',
                   VALE_CALC=44.999998560,
                   VALE_REFE=45.0,
                   REFERENCE='NON_DEFINI',
                   PRECISION=1.E-2,
                   MAILLE='M129',),
                _F(NUME_ORDRE=0,
                   POINT=8,
                   RESULTAT=TEMPE,
                   NOM_CHAM='FLUX_ELGA',
                   NOM_CMP='FLUX',
                   VALE_CALC=44.999998560,
                   VALE_REFE=45.0,
                   REFERENCE='NON_DEFINI',
                   PRECISION=1.E-2,
                   MAILLE='M129',),
                ),
          )

#
# TESTS DE MACR_LIGN_COUPE
#

TEST_TABLE(CRITERE='RELATIF',
           REFERENCE='ANALYTIQUE',
           PRECISION=1.E-3,
           VALE_CALC=41.000000097,
           VALE_REFE=41.0,
           NOM_PARA='TEMP',
           TABLE=TABTE1,
           FILTRE=(_F(NOM_PARA='ABSC_CURV',
                      VALE=0.0,),
                   _F(NOM_PARA='INTITULE',
                      VALE_K='l.coupe1',),
                   ),
           )

TEST_TABLE(CRITERE='RELATIF',
           REFERENCE='ANALYTIQUE',
           PRECISION=1.E-3,
           VALE_CALC=33.600000157,
           VALE_REFE=33.600000000000001,
           NOM_PARA='TEMP',
           TABLE=TABTE1,
           FILTRE=(_F(NOM_PARA='ABSC_CURV',
                      VALE=0.069281999999999996,),
                   _F(NOM_PARA='INTITULE',
                      VALE_K='l.coupe1',),
                   ),
           )

TEST_TABLE(CRITERE='RELATIF',
           REFERENCE='ANALYTIQUE',
           PRECISION=1.E-3,
           VALE_CALC=22.500000253,
           VALE_REFE=22.5,
           NOM_PARA='TEMP',
           TABLE=TABTE1,
           FILTRE=(_F(NOM_PARA='COOR_X',
                      VALE=0.0,),
                   _F(NOM_PARA='INTITULE',
                      VALE_K='l.coupe1',),
                   ),
           )

TEST_TABLE(CRITERE='RELATIF',
           REFERENCE='ANALYTIQUE',
           PRECISION=1.E-3,
           VALE_CALC=15.100000325,
           VALE_REFE=15.1,
           NOM_PARA='TEMP',
           TABLE=TABTE1,
           FILTRE=(_F(NOM_PARA='COOR_X',
                      VALE=0.040000000000000001,),
                   _F(NOM_PARA='INTITULE',
                      VALE_K='l.coupe1',),
                   ),
           )

TEST_TABLE(CRITERE='RELATIF',
           REFERENCE='ANALYTIQUE',
           PRECISION=1.E-3,
           VALE_CALC=4.000000409,
           VALE_REFE=4.0,
           NOM_PARA='TEMP',
           TABLE=TABTE1,
           FILTRE=(_F(NOM_PARA='COOR_X',
                      VALE=0.10000000000000001,),
                   _F(NOM_PARA='INTITULE',
                      VALE_K='l.coupe1',),
                   ),
           )

TEST_TABLE(CRITERE='RELATIF',
           REFERENCE='ANALYTIQUE',
           PRECISION=1.E-3,
           VALE_CALC=25.000000097,
           VALE_REFE=25.0,
           NOM_PARA='TEMP',
           TABLE=TABTE1,
           FILTRE=(_F(NOM_PARA='ABSC_CURV',
                      VALE=0.0,),
                   _F(NOM_PARA='INTITULE',
                      VALE_K='F_RQKL',),
                   ),
           )

FIN()
