# MODIF  DATE 24/07/2012   AUTEUR PELLET J.PELLET 
# TITRE CYLINDRE SOUMIS A DES COND. AUX LIMI. NON AXISYMETRIQUES QUAD4
# tplv100e.para = tps_job 60 mem_job 64Mo ncpus 1 liste_test R
#            CONFIGURATION MANAGEMENT OF EDF VERSION
# ======================================================================
# COPYRIGHT (C) 1991 - 2012  EDF R&D                  WWW.CODE-ASTER.ORG
# THIS PROGRAM IS FREE SOFTWARE; YOU CAN REDISTRIBUTE IT AND/OR MODIFY
# IT UNDER THE TERMS OF THE GNU GENERAL PUBLIC LICENSE AS PUBLISHED BY
# THE FREE SOFTWARE FOUNDATION; EITHER VERSION 2 OF THE LICENSE, OR
# (AT YOUR OPTION) ANY LATER VERSION.
#
# THIS PROGRAM IS DISTRIBUTED IN THE HOPE THAT IT WILL BE USEFUL, BUT
# WITHOUT ANY WARRANTY; WITHOUT EVEN THE IMPLIED WARRANTY OF
# MERCHANTABILITY OR FITNESS FOR A PARTICULAR PURPOSE. SEE THE GNU
# GENERAL PUBLIC LICENSE FOR MORE DETAILS.
#
# YOU SHOULD HAVE RECEIVED A COPY OF THE GNU GENERAL PUBLIC LICENSE
# ALONG WITH THIS PROGRAM; IF NOT, WRITE TO EDF R&D CODE_ASTER,
#    1 AVENUE DU GENERAL DE GAULLE, 92141 CLAMART CEDEX, FRANCE.
# ======================================================================
# CAS TEST SSLV109E
# CAS-TEST THERMIQUE FOURIER HARMONIQUE 2
#
# MODELISATION : ELEMENTS THERMIQUE AXIS_FOURIER (200 TRIA3 153 NOEUDS)
# MAILLAGE     : ALIBABA ==> ASTER
#
# ----------------------------------------------------------------------
# GROUPES DE MAILLES: FLUX_IMPO : GRMA6
#                     ECHANGE   : GRMA7
# ----------------------------------------------------------------------

DEBUT(CODE=_F(NOM='TPLV100E',NIV_PUB_WEB='INTERNET'),DEBUG=_F(SDVERI='OUI'))

M=LIRE_MAILLAGE(FORMAT='MED',);

MO=AFFE_MODELE(MAILLAGE=M,
               AFFE=_F(TOUT='OUI',
                       PHENOMENE='THERMIQUE',
                       MODELISATION='AXIS_FOURIER',),);

MA=DEFI_MATERIAU(THER=_F(LAMBDA=1.,
                         RHO_CP=0.,),);

CM=AFFE_MATERIAU(MAILLAGE=M,
                 AFFE=_F(TOUT='OUI',
                         MATER=MA,),);

T0  =DEFI_CONSTANTE (VALE= 0.)
FL2 =DEFI_CONSTANTE (VALE= 2.)
CH2 =DEFI_CONSTANTE (VALE= 2.)
TE2 =DEFI_CONSTANTE (VALE= 2.)
CH=AFFE_CHAR_THER_F(MODELE=MO,
                  TEMP_IMPO=_F(NOEUD='N1',
                               TEMP=T0,),
                  FLUX_REP=_F(GROUP_MA='GRMA6',
                              FLUN=FL2,),
                  ECHANGE=_F(GROUP_MA='GRMA7',
                             COEF_H=CH2,
                             TEMP_EXT=TE2,),);

KE=CALC_MATR_ELEM(OPTION='RIGI_THER',
                  MODELE=MO,
                  CHAM_MATER=CM,
                  MODE_FOURIER=2,
                  CHARGE=CH,);

VE=CALC_VECT_ELEM(OPTION='CHAR_THER',
                  CHARGE=CH,);

NU=NUME_DDL(MATR_RIGI=KE,);

KAS=ASSE_MATRICE(MATR_ELEM=KE,
                 NUME_DDL=NU,);

VAS=ASSE_VECTEUR(VECT_ELEM=VE,
                 NUME_DDL=NU,);

KAS=FACTORISER(reuse =KAS,
              MATR_ASSE=KAS,);

TEMP=RESOUDRE(MATR=KAS,
               CHAM_NO=VAS,);

FLUXNO=CALC_CHAM_ELEM(MODELE=MO,
                      CHAM_MATER=CM,
                      OPTION='FLUX_ELNO',
                      TEMP=TEMP,
                      MODE_FOURIER=2,);

FLUXGA=CALC_CHAM_ELEM(MODELE=MO,
                      CHAM_MATER=CM,
                      OPTION='FLUX_ELGA',
                      TEMP=TEMP,
                      MODE_FOURIER=2,);

TEST_RESU(CHAM_NO=(_F(CHAM_GD=TEMP,
                      NOEUD='N76',
                      NOM_CMP='TEMP',
                      VALE=0.25,
                      CRITERE='RELATIF',
                      PRECISION=0.01,),
                   _F(CHAM_GD=TEMP,
                      NOEUD='N78',
                      NOM_CMP='TEMP',
                      VALE=0.25,
                      CRITERE='RELATIF',
                      PRECISION=0.01,),
                   _F(CHAM_GD=TEMP,
                      NOEUD='N151',
                      NOM_CMP='TEMP',
                      VALE=1.0,
                      CRITERE='RELATIF',
                      PRECISION=0.01,),
                   _F(CHAM_GD=TEMP,
                      NOEUD='N152',
                      NOM_CMP='TEMP',
                      VALE=1.0,
                      CRITERE='RELATIF',
                      PRECISION=0.01,),
                   _F(CHAM_GD=TEMP,
                      NOEUD='N153',
                      NOM_CMP='TEMP',
                      VALE=1.0,
                      CRITERE='RELATIF',
                      PRECISION=0.01,),),);
#--------------------------------------------------------------------

TR1=POST_RELEVE_T(ACTION=_F(OPERATION='EXTRACTION',
                            INTITULE='EXT_FLUX',
                            CHAM_GD=FLUXNO,
                            NOEUD=('N151','N152','N153','N76','N78',),
                            NOM_CMP=('FLUX','FLUY','FLUZ',),),);
#

TEST_TABLE(TABLE=TR1,
           FILTRE=_F(NOM_PARA='NOEUD',
                     VALE_K='N151',),
           NOM_PARA='FLUX',
           VALE=-2.0,
           PRECISION=0.02,);

TEST_TABLE(TABLE=TR1,
           FILTRE=_F(NOM_PARA='NOEUD',
                     VALE_K='N152',),
           NOM_PARA='FLUX',
           VALE=-2.0,
           PRECISION=0.01,);

TEST_TABLE(TABLE=TR1,
           FILTRE=_F(NOM_PARA='NOEUD',
                     VALE_K='N153',),
           NOM_PARA='FLUX',
           VALE=-2.0,
           PRECISION=0.01,);

TEST_TABLE(TABLE=TR1,
           FILTRE=_F(NOM_PARA='NOEUD',
                     VALE_K='N76',),
           NOM_PARA='FLUX',
           VALE=-1.0,
           PRECISION=0.01,);

TEST_TABLE(TABLE=TR1,
           FILTRE=_F(NOM_PARA='NOEUD',
                     VALE_K='N78',),
           NOM_PARA='FLUX',
           VALE=-1.0,
           PRECISION=0.01,);
#

TEST_TABLE(TABLE=TR1,
           FILTRE=_F(NOM_PARA='NOEUD',
                     VALE_K='N151',),
           NOM_PARA='FLUZ',
           VALE=2.0,
           PRECISION=0.02,);

TEST_TABLE(TABLE=TR1,
           FILTRE=_F(NOM_PARA='NOEUD',
                     VALE_K='N152',),
           NOM_PARA='FLUZ',
           VALE=2.0,
           PRECISION=0.01,);

TEST_TABLE(TABLE=TR1,
           FILTRE=_F(NOM_PARA='NOEUD',
                     VALE_K='N153',),
           NOM_PARA='FLUZ',
           VALE=2.0,
           PRECISION=0.01,);

TEST_TABLE(TABLE=TR1,
           FILTRE=_F(NOM_PARA='NOEUD',
                     VALE_K='N76',),
           NOM_PARA='FLUZ',
           VALE=1.0,
           PRECISION=0.01,);

TEST_TABLE(TABLE=TR1,
           FILTRE=_F(NOM_PARA='NOEUD',
                     VALE_K='N78',),
           NOM_PARA='FLUZ',
           VALE=1.0,
           PRECISION=0.01,);
#

TEST_TABLE(TABLE=TR1,
           FILTRE=_F(NOM_PARA='NOEUD',
                     VALE_K='N151',),
           NOM_PARA='FLUY',
           VALE=0.0,
           CRITERE='ABSOLU',
           PRECISION=0.01,);

TEST_TABLE(TABLE=TR1,
           FILTRE=_F(NOM_PARA='NOEUD',
                     VALE_K='N152',),
           NOM_PARA='FLUY',
           VALE=0.0,
           CRITERE='ABSOLU',
           PRECISION=0.01,);

TEST_TABLE(TABLE=TR1,
           FILTRE=_F(NOM_PARA='NOEUD',
                     VALE_K='N153',),
           NOM_PARA='FLUY',
           VALE=0.0,
           CRITERE='ABSOLU',
           PRECISION=0.01,);

TEST_TABLE(TABLE=TR1,
           FILTRE=_F(NOM_PARA='NOEUD',
                     VALE_K='N76',),
           NOM_PARA='FLUY',
           VALE=0.0,
           CRITERE='ABSOLU',
           PRECISION=0.01,);

TEST_TABLE(TABLE=TR1,
           FILTRE=_F(NOM_PARA='NOEUD',
                     VALE_K='N78',),
           NOM_PARA='FLUY',
           VALE=0.0,
           CRITERE='ABSOLU',
           PRECISION=0.01,);

FIN();
#
