# TITRE CYLINDRE SOUMIS A DES COND. AUX LIMI. NON AXISYMETRIQUES TRIA6
#            CONFIGURATION MANAGEMENT OF EDF VERSION
# ======================================================================
# COPYRIGHT (C) 1991 - 2013  EDF R&D                  WWW.CODE-ASTER.ORG
# THIS PROGRAM IS FREE SOFTWARE; YOU CAN REDISTRIBUTE IT AND/OR MODIFY
# IT UNDER THE TERMS OF THE GNU GENERAL PUBLIC LICENSE AS PUBLISHED BY
# THE FREE SOFTWARE FOUNDATION; EITHER VERSION 2 OF THE LICENSE, OR
# (AT YOUR OPTION) ANY LATER VERSION.
#
# THIS PROGRAM IS DISTRIBUTED IN THE HOPE THAT IT WILL BE USEFUL, BUT
# WITHOUT ANY WARRANTY; WITHOUT EVEN THE IMPLIED WARRANTY OF
# MERCHANTABILITY OR FITNESS FOR A PARTICULAR PURPOSE. SEE THE GNU
# GENERAL PUBLIC LICENSE FOR MORE DETAILS.
#
# YOU SHOULD HAVE RECEIVED A COPY OF THE GNU GENERAL PUBLIC LICENSE
# ALONG WITH THIS PROGRAM; IF NOT, WRITE TO EDF R&D CODE_ASTER,
#    1 AVENUE DU GENERAL DE GAULLE, 92141 CLAMART CEDEX, FRANCE.
# ======================================================================
# CAS TEST SSLV109A
# CAS-TEST THERMIQUE FOURIER HARMONIQUE 1
#
# MODELISATION : ELEMENTS THERMIQUE AXIS_FOURIER (TRIA6)
# MAILLAGE     : ALIBABA ==> ASTER
#
# ----------------------------------------------------------------------
# GROUPES DE MAILLES: FLUX_IMPO : GRMA6
#                     ECHANGE   : GRMA7
# ----------------------------------------------------------------------
#
DEBUT(CODE=_F(NOM='TPLV100A', NIV_PUB_WEB='INTERNET'), DEBUG=_F(SDVERI='OUI'))

M=LIRE_MAILLAGE(FORMAT='MED', )

MO=AFFE_MODELE(  MAILLAGE=M,
                         AFFE=_F(  TOUT = 'OUI',
                                PHENOMENE = 'THERMIQUE',
                                MODELISATION = 'AXIS_FOURIER') )

MA=DEFI_MATERIAU(  THER=_F(  LAMBDA = 1.,   RHO_CP = 0.) )

CM=AFFE_MATERIAU(  MAILLAGE=M,
                           AFFE=_F(  TOUT = 'OUI',   MATER = MA) )

CH=AFFE_CHAR_THER(     MODELE=MO,
                         FLUX_REP=_F(  GROUP_MA = 'GRMA6',  FLUN = 2.),
                          ECHANGE=_F(  GROUP_MA = 'GRMA7',
                                    COEF_H = 2.,   TEMP_EXT = 2.),
                           SOURCE=_F(  TOUT = 'OUI',  SOUR = -3.),TEMP_IMPO=(
                        _F(  NOEUD = 'N1',   TEMP = 0.),
                                  _F(  NOEUD = 'N2',   TEMP = 0.),
                                  _F(  NOEUD = 'N3',   TEMP = 0.),
                                  _F(  NOEUD = 'N12',  TEMP = 0.),
                                  _F(  NOEUD = 'N16',  TEMP = 0.)) )

KE=CALC_MATR_ELEM(  MODELE=MO,        OPTION='RIGI_THER',
                        CHARGE=CH,        CHAM_MATER=CM,
                        MODE_FOURIER=1                        )

VE=CALC_VECT_ELEM(  OPTION='CHAR_THER',
                        CHARGE=CH,     )

NU=NUME_DDL(  MATR_RIGI=KE   )

KAS=ASSE_MATRICE(  MATR_ELEM=KE,    NUME_DDL=NU   )

VAS=ASSE_VECTEUR(  VECT_ELEM=VE,    NUME_DDL=NU   )

KAS=FACTORISER(reuse=KAS,  MATR_ASSE=KAS   )

TEMP=RESOUDRE(  MATR=KAS,    CHAM_NO=VAS   )

FLUXNO=CALC_CHAM_ELEM(  MODELE=MO,        OPTION='FLUX_ELNO',
                            TEMP=TEMP,        CHAM_MATER=CM,
                            MODE_FOURIER=1                   )

TEST_RESU(CHAM_NO=(_F(NOEUD='N7',
                      NOM_CMP='TEMP',
                      PRECISION=1.E-2,
                      CHAM_GD=TEMP,
                      VALE_CALC=0.998075865,
                      VALE_REFE=1.0,
                      REFERENCE='NON_DEFINI',),
                   _F(NOEUD='N8',
                      NOM_CMP='TEMP',
                      PRECISION=1.E-2,
                      CHAM_GD=TEMP,
                      VALE_CALC=0.999011239,
                      VALE_REFE=1.0,
                      REFERENCE='NON_DEFINI',),
                   _F(NOEUD='N9',
                      NOM_CMP='TEMP',
                      PRECISION=1.E-2,
                      CHAM_GD=TEMP,
                      VALE_CALC=0.999690278,
                      VALE_REFE=1.0,
                      REFERENCE='NON_DEFINI',),
                   _F(NOEUD='N4',
                      NOM_CMP='TEMP',
                      PRECISION=1.E-2,
                      CHAM_GD=TEMP,
                      VALE_CALC=0.248365874,
                      VALE_REFE=0.25,
                      REFERENCE='NON_DEFINI',),
                   _F(NOEUD='N6',
                      NOM_CMP='TEMP',
                      PRECISION=1.E-2,
                      CHAM_GD=TEMP,
                      VALE_CALC=0.251317840,
                      VALE_REFE=0.25,
                      REFERENCE='NON_DEFINI',),
                   ),
          )

#--------------------------------------------------------------------

TR1=POST_RELEVE_T(
                ACTION=_F(  INTITULE = 'EXT_FLUX',
                         NOEUD = ( 'N7',  'N8',  'N9',  'N4',  'N6', ),
                         CHAM_GD = FLUXNO,
                         NOM_CMP = ( 'FLUX',  'FLUY',  'FLUZ', ),
                         OPERATION = 'EXTRACTION')
                       )

#

TEST_TABLE(PRECISION=1.E-2,
           VALE_CALC=-1.992858279,
           VALE_REFE=-2.0,
           REFERENCE='NON_DEFINI',
           NOM_PARA='FLUX',
           TABLE=TR1,
           FILTRE=_F(NOM_PARA='NOEUD',
                     VALE_K='N7',),
           )

TEST_TABLE(PRECISION=1.E-2,
           VALE_CALC=-2.000164698,
           VALE_REFE=-2.0,
           REFERENCE='NON_DEFINI',
           NOM_PARA='FLUX',
           TABLE=TR1,
           FILTRE=_F(NOM_PARA='NOEUD',
                     VALE_K='N8',),
           )

TEST_TABLE(PRECISION=1.E-2,
           VALE_CALC=-2.008548560,
           VALE_REFE=-2.0,
           REFERENCE='NON_DEFINI',
           NOM_PARA='FLUX',
           TABLE=TR1,
           FILTRE=_F(NOM_PARA='NOEUD',
                     VALE_K='N9',),
           )

TEST_TABLE(PRECISION=1.E-2,
           VALE_CALC=-0.992420840,
           VALE_REFE=-1.0,
           REFERENCE='NON_DEFINI',
           NOM_PARA='FLUX',
           TABLE=TR1,
           FILTRE=_F(NOM_PARA='NOEUD',
                     VALE_K='N4',),
           )

TEST_TABLE(PRECISION=1.E-2,
           VALE_CALC=-1.005087514,
           VALE_REFE=-1.0,
           REFERENCE='NON_DEFINI',
           NOM_PARA='FLUX',
           TABLE=TR1,
           FILTRE=_F(NOM_PARA='NOEUD',
                     VALE_K='N6',),
           )

#

TEST_TABLE(PRECISION=1.E-2,
           VALE_CALC=0.999639513,
           VALE_REFE=1.0,
           REFERENCE='NON_DEFINI',
           NOM_PARA='FLUZ',
           TABLE=TR1,
           FILTRE=_F(NOM_PARA='NOEUD',
                     VALE_K='N7',),
           )

TEST_TABLE(PRECISION=1.E-2,
           VALE_CALC=0.999461588,
           VALE_REFE=1.0,
           REFERENCE='NON_DEFINI',
           NOM_PARA='FLUZ',
           TABLE=TR1,
           FILTRE=_F(NOM_PARA='NOEUD',
                     VALE_K='N8',),
           )

TEST_TABLE(PRECISION=1.E-2,
           VALE_CALC=0.999477529,
           VALE_REFE=1.0,
           REFERENCE='NON_DEFINI',
           NOM_PARA='FLUZ',
           TABLE=TR1,
           FILTRE=_F(NOM_PARA='NOEUD',
                     VALE_K='N9',),
           )

TEST_TABLE(PRECISION=1.E-2,
           VALE_CALC=0.498158637,
           VALE_REFE=0.5,
           REFERENCE='NON_DEFINI',
           NOM_PARA='FLUZ',
           TABLE=TR1,
           FILTRE=_F(NOM_PARA='NOEUD',
                     VALE_K='N4',),
           )

TEST_TABLE(PRECISION=1.E-2,
           VALE_CALC=0.500510914,
           VALE_REFE=0.5,
           REFERENCE='NON_DEFINI',
           NOM_PARA='FLUZ',
           TABLE=TR1,
           FILTRE=_F(NOM_PARA='NOEUD',
                     VALE_K='N6',),
           )

#

TEST_TABLE(CRITERE='ABSOLU',
           PRECISION=1.E-2,
           VALE_CALC=-5.25514994E-03,
           VALE_REFE=0.0,
           REFERENCE='NON_DEFINI',
           NOM_PARA='FLUY',
           TABLE=TR1,
           FILTRE=_F(NOM_PARA='NOEUD',
                     VALE_K='N7',),
           )

TEST_TABLE(CRITERE='ABSOLU',
           PRECISION=1.E-2,
           VALE_CALC= 7.63819207E-04,
           VALE_REFE=0.0,
           REFERENCE='NON_DEFINI',
           NOM_PARA='FLUY',
           TABLE=TR1,
           FILTRE=_F(NOM_PARA='NOEUD',
                     VALE_K='N8',),
           )

TEST_TABLE(CRITERE='ABSOLU',
           PRECISION=1.E-2,
           VALE_CALC= 7.68485981E-03,
           VALE_REFE=0.0,
           REFERENCE='NON_DEFINI',
           NOM_PARA='FLUY',
           TABLE=TR1,
           FILTRE=_F(NOM_PARA='NOEUD',
                     VALE_K='N9',),
           )

TEST_TABLE(CRITERE='ABSOLU',
           PRECISION=1.E-2,
           VALE_CALC= 6.60759955E-04,
           VALE_REFE=0.0,
           REFERENCE='NON_DEFINI',
           NOM_PARA='FLUY',
           TABLE=TR1,
           FILTRE=_F(NOM_PARA='NOEUD',
                     VALE_K='N4',),
           )

TEST_TABLE(CRITERE='ABSOLU',
           PRECISION=1.E-2,
           VALE_CALC=-1.15547307E-03,
           VALE_REFE=0.0,
           REFERENCE='NON_DEFINI',
           NOM_PARA='FLUY',
           TABLE=TR1,
           FILTRE=_F(NOM_PARA='NOEUD',
                     VALE_K='N6',),
           )

#-----------------------------------------------------------------------
#                     RECOMBINAISON DE FOURIER
# ----------------------------------------------------------------------


RTEMP=CREA_RESU(OPERATION='AFFE',TYPE_RESU='FOURIER_THER',NOM_CHAM='TEMP',
           AFFE=_F( CHAM_GD=TEMP,NUME_MODE=1,TYPE_MODE='SYME'),)

#RTEMP2=CALC_CHAMP(RESULTAT=RTEMP,MODELE=MO,NUME_MODE=1,  THERMIQUE=('FLUX_ELNO'))

#RTEMP2=CALC_CHAMP(reuse=RTEMP2,RESULTAT=RTEMP2,THERMIQUE='FLUX_NOEU')

TRTEMP2=POST_RELEVE_T(
                ACTION=_F(  INTITULE = 'TEMP',
                         NOEUD = ( 'N7',  'N8',  'N9',  'N4',  'N6', ),
                         RESULTAT=RTEMP,   NOM_CHAM=( 'TEMP',),
                         NOM_CMP = ( 'TEMP', ),
                         OPERATION = 'EXTRACTION')
                       )


FOUR45=COMB_FOURIER(   RESULTAT=RTEMP,
                       NOM_CHAM=( 'TEMP',),
                       ANGLE=( 45., ),)

TEMP45=CREA_CHAMP(OPERATION='EXTR',TYPE_CHAM='NOEU_TEMP_R',
             RESULTAT=FOUR45,ANGLE=45.,NOM_CHAM='TEMP')

FOUR135=COMB_FOURIER(   RESULTAT=RTEMP,
                       NOM_CHAM=( 'TEMP',),
                       ANGLE=( 135., ),)

TEMP135=CREA_CHAMP(OPERATION='EXTR',TYPE_CHAM='NOEU_TEMP_R',
             RESULTAT=FOUR135,ANGLE=135.,NOM_CHAM='TEMP')

RFLUX=CREA_RESU(OPERATION='AFFE',TYPE_RESU='FOURIER_THER',NOM_CHAM='FLUX_ELNO',
           AFFE=_F( CHAM_GD=FLUXNO,NUME_MODE=1,TYPE_MODE='SYME'),)

IMPR_RESU(RESU=_F(RESULTAT=RFLUX,NOM_CHAM='FLUX_ELNO',),)
IMPR_RESU(FORMAT='MED',RESU=_F(RESULTAT=RFLUX,NOM_CHAM='FLUX_ELNO',),)

FOUR45F=COMB_FOURIER(   RESULTAT=RFLUX,
                       NOM_CHAM=( 'FLUX_ELNO',),
                       ANGLE=( 45., ),)

FLUX45=CREA_CHAMP(OPERATION='EXTR',TYPE_CHAM='ELNO_FLUX_R',
             RESULTAT=FOUR45F,ANGLE=45.,NOM_CHAM='FLUX_ELNO')

FOUR135F=COMB_FOURIER(   RESULTAT=RFLUX,
                       NOM_CHAM=( 'FLUX_ELNO',),
                       ANGLE=( 135., ),)

FLUX135=CREA_CHAMP(OPERATION='EXTR',TYPE_CHAM='ELNO_FLUX_R',
             RESULTAT=FOUR135F,ANGLE=135.,NOM_CHAM='FLUX_ELNO')


TEMPRZ = CREA_CHAMP(OPERATION='ASSE',MODELE=MO,TYPE_CHAM='NOEU_TEMP_R',
                    OPTION='TEMP',
                   ASSE=(_F( CHAM_GD=TEMP45,TOUT='OUI',CUMUL='OUI',COEF_R=1.),
                         _F( CHAM_GD=TEMP135,TOUT='OUI',CUMUL='OUI',COEF_R=1.),),)

TEMPTH = CREA_CHAMP(OPERATION='ASSE',MODELE=MO,TYPE_CHAM='NOEU_TEMP_R',
                   OPTION='TEMP',
                   ASSE=(_F( CHAM_GD=TEMP45,TOUT='OUI',CUMUL='OUI',COEF_R=1.),
                         _F( CHAM_GD=TEMP135,TOUT='OUI',CUMUL='OUI',COEF_R=-1.),),)

FLUXRZ = CREA_CHAMP(OPERATION='ASSE',MODELE=MO,TYPE_CHAM='ELNO_FLUX_R',
                   OPTION='FLUX_ELNO',
                   ASSE=(_F( CHAM_GD=FLUX45,TOUT='OUI',CUMUL='OUI',COEF_R=1.),
                         _F( CHAM_GD=FLUX135,TOUT='OUI',CUMUL='OUI',COEF_R=1.),),)

FLUXTH = CREA_CHAMP(OPERATION='ASSE',MODELE=MO,TYPE_CHAM='ELNO_FLUX_R',
                   OPTION='FLUX_ELNO',
                   ASSE=(_F( CHAM_GD=FLUX45,TOUT='OUI',CUMUL='OUI',COEF_R=1.),
                         _F( CHAM_GD=FLUX135,TOUT='OUI',CUMUL='OUI',COEF_R=-1.),),)

TEST_RESU(CHAM_NO=(_F(NOEUD='N7',
                      NOM_CMP='TEMP',
                      PRECISION=1.E-2,
                      CHAM_GD=TEMP45,
                      VALE_CALC=0.705746212,
                      VALE_REFE=0.70710680000000004,
                      REFERENCE='NON_DEFINI',),
                   _F(NOEUD='N8',
                      NOM_CMP='TEMP',
                      PRECISION=1.E-2,
                      CHAM_GD=TEMP45,
                      VALE_CALC=0.706407621,
                      VALE_REFE=0.70710680000000004,
                      REFERENCE='NON_DEFINI',),
                   _F(NOEUD='N9',
                      NOM_CMP='TEMP',
                      PRECISION=1.E-2,
                      CHAM_GD=TEMP45,
                      VALE_CALC=0.706887775,
                      VALE_REFE=0.70710680000000004,
                      REFERENCE='NON_DEFINI',),
                   _F(NOEUD='N4',
                      NOM_CMP='TEMP',
                      PRECISION=1.E-2,
                      CHAM_GD=TEMP45,
                      VALE_CALC=0.175621194,
                      VALE_REFE=0.17677670000000001,
                      REFERENCE='NON_DEFINI',),
                   _F(NOEUD='N6',
                      NOM_CMP='TEMP',
                      PRECISION=1.E-2,
                      CHAM_GD=TEMP45,
                      VALE_CALC=0.177708549,
                      VALE_REFE=0.17677670000000001,
                      REFERENCE='NON_DEFINI',),
                   _F(NOEUD='N7',
                      NOM_CMP='TEMP',
                      PRECISION=1.E-2,
                      CHAM_GD=TEMP135,
                      VALE_CALC=-0.705746212,
                      VALE_REFE=-0.70710680000000004,
                      REFERENCE='NON_DEFINI',),
                   _F(NOEUD='N8',
                      NOM_CMP='TEMP',
                      PRECISION=1.E-2,
                      CHAM_GD=TEMP135,
                      VALE_CALC=-0.706407621,
                      VALE_REFE=-0.70710680000000004,
                      REFERENCE='NON_DEFINI',),
                   _F(NOEUD='N9',
                      NOM_CMP='TEMP',
                      PRECISION=1.E-2,
                      CHAM_GD=TEMP135,
                      VALE_CALC=-0.706887775,
                      VALE_REFE=-0.70710680000000004,
                      REFERENCE='NON_DEFINI',),
                   _F(NOEUD='N4',
                      NOM_CMP='TEMP',
                      PRECISION=1.E-2,
                      CHAM_GD=TEMP135,
                      VALE_CALC=-0.175621194,
                      VALE_REFE=-0.17677670000000001,
                      REFERENCE='NON_DEFINI',),
                   _F(NOEUD='N6',
                      NOM_CMP='TEMP',
                      PRECISION=1.E-2,
                      CHAM_GD=TEMP135,
                      VALE_CALC=-0.177708549,
                      VALE_REFE=-0.17677670000000001,
                      REFERENCE='NON_DEFINI',),
                   _F(NOEUD='N7',
                      CRITERE='ABSOLU',
                      NOM_CMP='TEMP',
                      CHAM_GD=TEMPRZ,
                      VALE_CALC=0.0,
                      TOLE_MACHINE=1.E-3,),
                   _F(NOEUD='N8',
                      CRITERE='ABSOLU',
                      NOM_CMP='TEMP',
                      CHAM_GD=TEMPRZ,
                      VALE_CALC=0.0,
                      TOLE_MACHINE=1.E-3,),
                   _F(NOEUD='N9',
                      CRITERE='ABSOLU',
                      NOM_CMP='TEMP',
                      CHAM_GD=TEMPRZ,
                      VALE_CALC=0.0,
                      TOLE_MACHINE=1.E-3,),
                   _F(NOEUD='N4',
                      CRITERE='ABSOLU',
                      NOM_CMP='TEMP',
                      CHAM_GD=TEMPRZ,
                      VALE_CALC=0.0,
                      TOLE_MACHINE=1.E-3,),
                   _F(NOEUD='N6',
                      CRITERE='ABSOLU',
                      NOM_CMP='TEMP',
                      CHAM_GD=TEMPRZ,
                      VALE_CALC=0.0,
                      TOLE_MACHINE=1.E-3,),
                   _F(NOEUD='N7',
                      NOM_CMP='TEMP',
                      PRECISION=1.E-2,
                      CHAM_GD=TEMPTH,
                      VALE_CALC=1.411492425,
                      VALE_REFE=1.4142136000000001,
                      REFERENCE='NON_DEFINI',),
                   _F(NOEUD='N8',
                      NOM_CMP='TEMP',
                      PRECISION=1.E-2,
                      CHAM_GD=TEMPTH,
                      VALE_CALC=1.412815243,
                      VALE_REFE=1.4142136000000001,
                      REFERENCE='NON_DEFINI',),
                   _F(NOEUD='N9',
                      NOM_CMP='TEMP',
                      PRECISION=1.E-2,
                      CHAM_GD=TEMPTH,
                      VALE_CALC=1.413775550,
                      VALE_REFE=1.4142136000000001,
                      REFERENCE='NON_DEFINI',),
                   _F(NOEUD='N4',
                      NOM_CMP='TEMP',
                      PRECISION=1.E-2,
                      CHAM_GD=TEMPTH,
                      VALE_CALC=0.351242387,
                      VALE_REFE=0.35355340000000002,
                      REFERENCE='NON_DEFINI',),
                   _F(NOEUD='N6',
                      NOM_CMP='TEMP',
                      PRECISION=1.E-2,
                      CHAM_GD=TEMPTH,
                      VALE_CALC=0.355417098,
                      VALE_REFE=0.35355340000000002,
                      REFERENCE='NON_DEFINI',),
                   ),
          )

TEST_RESU(CHAM_ELEM=(_F(NOEUD='N7',
                        NOM_CMP='FLUX',
                        PRECISION=0.040000000000000001,
                        MAILLE='M5',
                        CHAM_GD=FLUX45,
                        VALE_CALC=-1.401854384,
                        VALE_REFE=-1.4142136000000001,
                        REFERENCE='NON_DEFINI',),
                     _F(NOEUD='N8',
                        NOM_CMP='FLUX',
                        PRECISION=0.040000000000000001,
                        MAILLE='M6',
                        CHAM_GD=FLUX45,
                        VALE_CALC=-1.411680004,
                        VALE_REFE=-1.4142136000000001,
                        REFERENCE='NON_DEFINI',),
                     _F(NOEUD='N9',
                        NOM_CMP='FLUX',
                        PRECISION=0.040000000000000001,
                        MAILLE='M8',
                        CHAM_GD=FLUX45,
                        VALE_CALC=-1.420258307,
                        VALE_REFE=-1.4142136000000001,
                        REFERENCE='NON_DEFINI',),
                     _F(NOEUD='N4',
                        NOM_CMP='FLUX',
                        PRECISION=0.040000000000000001,
                        MAILLE='M1',
                        CHAM_GD=FLUX45,
                        VALE_CALC=-0.684811048,
                        VALE_REFE=-0.70710680000000004,
                        REFERENCE='NON_DEFINI',),
                     _F(NOEUD='N6',
                        NOM_CMP='FLUX',
                        PRECISION=0.040000000000000001,
                        MAILLE='M4',
                        CHAM_GD=FLUX45,
                        VALE_CALC=-0.728876419,
                        VALE_REFE=-0.70710680000000004,
                        REFERENCE='NON_DEFINI',),
                     _F(NOEUD='N7',
                        CRITERE='ABSOLU',
                        NOM_CMP='FLUY',
                        PRECISION=0.040000000000000001,
                        MAILLE='M5',
                        CHAM_GD=FLUX45,
                        VALE_CALC= 3.59326811E-03,
                        VALE_REFE=0.0,
                        REFERENCE='NON_DEFINI',),
                     _F(NOEUD='N8',
                        CRITERE='ABSOLU',
                        NOM_CMP='FLUY',
                        PRECISION=0.040000000000000001,
                        MAILLE='M6',
                        CHAM_GD=FLUX45,
                        VALE_CALC= 8.37953489E-03,
                        VALE_REFE=0.0,
                        REFERENCE='NON_DEFINI',),
                     _F(NOEUD='N9',
                        CRITERE='ABSOLU',
                        NOM_CMP='FLUY',
                        PRECISION=0.040000000000000001,
                        MAILLE='M8',
                        CHAM_GD=FLUX45,
                        VALE_CALC= 5.43401649E-03,
                        VALE_REFE=0.0,
                        REFERENCE='NON_DEFINI',),
                     _F(NOEUD='N4',
                        CRITERE='ABSOLU',
                        NOM_CMP='FLUY',
                        PRECISION=0.040000000000000001,
                        MAILLE='M1',
                        CHAM_GD=FLUX45,
                        VALE_CALC=0.011783714,
                        VALE_REFE=0.0,
                        REFERENCE='NON_DEFINI',),
                     _F(NOEUD='N6',
                        CRITERE='ABSOLU',
                        NOM_CMP='FLUY',
                        PRECISION=0.040000000000000001,
                        MAILLE='M4',
                        CHAM_GD=FLUX45,
                        VALE_CALC=-4.25669634E-03,
                        VALE_REFE=0.0,
                        REFERENCE='NON_DEFINI',),
                     _F(NOEUD='N7',
                        NOM_CMP='FLUZ',
                        PRECISION=0.040000000000000001,
                        MAILLE='M5',
                        CHAM_GD=FLUX45,
                        VALE_CALC=-0.706916695,
                        VALE_REFE=-0.70710680000000004,
                        REFERENCE='NON_DEFINI',),
                     _F(NOEUD='N8',
                        NOM_CMP='FLUZ',
                        PRECISION=0.040000000000000001,
                        MAILLE='M6',
                        CHAM_GD=FLUX45,
                        VALE_CALC=-0.707062278,
                        VALE_REFE=-0.70710680000000004,
                        REFERENCE='NON_DEFINI',),
                     _F(NOEUD='N9',
                        NOM_CMP='FLUZ',
                        PRECISION=0.040000000000000001,
                        MAILLE='M8',
                        CHAM_GD=FLUX45,
                        VALE_CALC=-0.706737338,
                        VALE_REFE=-0.70710680000000004,
                        REFERENCE='NON_DEFINI',),
                     _F(NOEUD='N4',
                        NOM_CMP='FLUZ',
                        PRECISION=0.040000000000000001,
                        MAILLE='M1',
                        CHAM_GD=FLUX45,
                        VALE_CALC=-0.351242387,
                        VALE_REFE=-0.35355340000000002,
                        REFERENCE='NON_DEFINI',),
                     _F(NOEUD='N6',
                        NOM_CMP='FLUZ',
                        PRECISION=0.040000000000000001,
                        MAILLE='M4',
                        CHAM_GD=FLUX45,
                        VALE_CALC=-0.353354414,
                        VALE_REFE=-0.35355340000000002,
                        REFERENCE='NON_DEFINI',),
                     _F(NOEUD='N7',
                        NOM_CMP='FLUX',
                        PRECISION=0.040000000000000001,
                        MAILLE='M5',
                        CHAM_GD=FLUX135,
                        VALE_CALC=1.401854384,
                        VALE_REFE=1.4142136000000001,
                        REFERENCE='NON_DEFINI',),
                     _F(NOEUD='N8',
                        NOM_CMP='FLUX',
                        PRECISION=0.040000000000000001,
                        MAILLE='M6',
                        CHAM_GD=FLUX135,
                        VALE_CALC=1.411680004,
                        VALE_REFE=1.4142136000000001,
                        REFERENCE='NON_DEFINI',),
                     _F(NOEUD='N9',
                        NOM_CMP='FLUX',
                        PRECISION=0.040000000000000001,
                        MAILLE='M8',
                        CHAM_GD=FLUX135,
                        VALE_CALC=1.420258307,
                        VALE_REFE=1.4142136000000001,
                        REFERENCE='NON_DEFINI',),
                     _F(NOEUD='N4',
                        NOM_CMP='FLUX',
                        PRECISION=0.040000000000000001,
                        MAILLE='M1',
                        CHAM_GD=FLUX135,
                        VALE_CALC=0.684811048,
                        VALE_REFE=0.70710680000000004,
                        REFERENCE='NON_DEFINI',),
                     _F(NOEUD='N6',
                        NOM_CMP='FLUX',
                        PRECISION=0.040000000000000001,
                        MAILLE='M4',
                        CHAM_GD=FLUX135,
                        VALE_CALC=0.728876419,
                        VALE_REFE=0.70710680000000004,
                        REFERENCE='NON_DEFINI',),
                     _F(NOEUD='N7',
                        CRITERE='ABSOLU',
                        NOM_CMP='FLUY',
                        PRECISION=0.040000000000000001,
                        MAILLE='M5',
                        CHAM_GD=FLUX135,
                        VALE_CALC=-3.59326811E-03,
                        VALE_REFE=0.0,
                        REFERENCE='NON_DEFINI',),
                     _F(NOEUD='N8',
                        CRITERE='ABSOLU',
                        NOM_CMP='FLUY',
                        PRECISION=0.040000000000000001,
                        MAILLE='M6',
                        CHAM_GD=FLUX135,
                        VALE_CALC=-8.37953489E-03,
                        VALE_REFE=0.0,
                        REFERENCE='NON_DEFINI',),
                     _F(NOEUD='N9',
                        CRITERE='ABSOLU',
                        NOM_CMP='FLUY',
                        PRECISION=0.040000000000000001,
                        MAILLE='M8',
                        CHAM_GD=FLUX135,
                        VALE_CALC=-5.43401649E-03,
                        VALE_REFE=0.0,
                        REFERENCE='NON_DEFINI',),
                     _F(NOEUD='N4',
                        CRITERE='ABSOLU',
                        NOM_CMP='FLUY',
                        PRECISION=0.040000000000000001,
                        MAILLE='M1',
                        CHAM_GD=FLUX135,
                        VALE_CALC=-0.011783714,
                        VALE_REFE=0.0,
                        REFERENCE='NON_DEFINI',),
                     _F(NOEUD='N6',
                        CRITERE='ABSOLU',
                        NOM_CMP='FLUY',
                        PRECISION=0.040000000000000001,
                        MAILLE='M4',
                        CHAM_GD=FLUX135,
                        VALE_CALC= 4.25669634E-03,
                        VALE_REFE=0.0,
                        REFERENCE='NON_DEFINI',),
                     _F(NOEUD='N7',
                        NOM_CMP='FLUZ',
                        PRECISION=0.040000000000000001,
                        MAILLE='M5',
                        CHAM_GD=FLUX135,
                        VALE_CALC=-0.706916695,
                        VALE_REFE=-0.70710680000000004,
                        REFERENCE='NON_DEFINI',),
                     _F(NOEUD='N8',
                        NOM_CMP='FLUZ',
                        PRECISION=0.040000000000000001,
                        MAILLE='M6',
                        CHAM_GD=FLUX135,
                        VALE_CALC=-0.707062278,
                        VALE_REFE=-0.70710680000000004,
                        REFERENCE='NON_DEFINI',),
                     _F(NOEUD='N9',
                        NOM_CMP='FLUZ',
                        PRECISION=0.040000000000000001,
                        MAILLE='M8',
                        CHAM_GD=FLUX135,
                        VALE_CALC=-0.706737338,
                        VALE_REFE=-0.70710680000000004,
                        REFERENCE='NON_DEFINI',),
                     _F(NOEUD='N4',
                        NOM_CMP='FLUZ',
                        PRECISION=0.040000000000000001,
                        MAILLE='M1',
                        CHAM_GD=FLUX135,
                        VALE_CALC=-0.351242387,
                        VALE_REFE=-0.35355340000000002,
                        REFERENCE='NON_DEFINI',),
                     _F(NOEUD='N6',
                        NOM_CMP='FLUZ',
                        PRECISION=0.040000000000000001,
                        MAILLE='M4',
                        CHAM_GD=FLUX135,
                        VALE_CALC=-0.353354414,
                        VALE_REFE=-0.35355340000000002,
                        REFERENCE='NON_DEFINI',),
                     _F(NOEUD='N7',
                        CRITERE='ABSOLU',
                        NOM_CMP='FLUX',
                        MAILLE='M5',
                        CHAM_GD=FLUXRZ,
                        VALE_CALC=0.0,
                        TOLE_MACHINE=1.E-3,),
                     _F(NOEUD='N8',
                        CRITERE='ABSOLU',
                        NOM_CMP='FLUX',
                        MAILLE='M6',
                        CHAM_GD=FLUXRZ,
                        VALE_CALC=0.0,
                        TOLE_MACHINE=1.E-3,),
                     _F(NOEUD='N9',
                        CRITERE='ABSOLU',
                        NOM_CMP='FLUX',
                        MAILLE='M8',
                        CHAM_GD=FLUXRZ,
                        VALE_CALC=0.0,
                        TOLE_MACHINE=1.E-3,),
                     _F(NOEUD='N4',
                        CRITERE='ABSOLU',
                        NOM_CMP='FLUX',
                        MAILLE='M1',
                        CHAM_GD=FLUXRZ,
                        VALE_CALC=0.0,
                        TOLE_MACHINE=1.E-3,),
                     _F(NOEUD='N6',
                        CRITERE='ABSOLU',
                        NOM_CMP='FLUX',
                        MAILLE='M4',
                        CHAM_GD=FLUXRZ,
                        VALE_CALC=0.0,
                        TOLE_MACHINE=1.E-3,),
                     _F(NOEUD='N7',
                        CRITERE='ABSOLU',
                        NOM_CMP='FLUY',
                        MAILLE='M5',
                        CHAM_GD=FLUXRZ,
                        VALE_CALC=0.0,
                        TOLE_MACHINE=1.E-3,),
                     _F(NOEUD='N8',
                        CRITERE='ABSOLU',
                        NOM_CMP='FLUY',
                        MAILLE='M6',
                        CHAM_GD=FLUXRZ,
                        VALE_CALC=0.0,
                        TOLE_MACHINE=1.E-3,),
                     _F(NOEUD='N9',
                        CRITERE='ABSOLU',
                        NOM_CMP='FLUY',
                        MAILLE='M8',
                        CHAM_GD=FLUXRZ,
                        VALE_CALC=0.0,
                        TOLE_MACHINE=1.E-3,),
                     _F(NOEUD='N4',
                        CRITERE='ABSOLU',
                        NOM_CMP='FLUY',
                        MAILLE='M1',
                        CHAM_GD=FLUXRZ,
                        VALE_CALC=0.0,
                        TOLE_MACHINE=1.E-3,),
                     _F(NOEUD='N6',
                        CRITERE='ABSOLU',
                        NOM_CMP='FLUY',
                        MAILLE='M4',
                        CHAM_GD=FLUXRZ,
                        VALE_CALC=0.0,
                        TOLE_MACHINE=1.E-3,),
                     _F(NOEUD='N7',
                        NOM_CMP='FLUZ',
                        PRECISION=0.040000000000000001,
                        MAILLE='M5',
                        CHAM_GD=FLUXRZ,
                        VALE_CALC=-1.413833389,
                        VALE_REFE=-1.4142136000000001,
                        REFERENCE='NON_DEFINI',),
                     _F(NOEUD='N8',
                        NOM_CMP='FLUZ',
                        PRECISION=0.040000000000000001,
                        MAILLE='M6',
                        CHAM_GD=FLUXRZ,
                        VALE_CALC=-1.414124555,
                        VALE_REFE=-1.4142136000000001,
                        REFERENCE='NON_DEFINI',),
                     _F(NOEUD='N9',
                        NOM_CMP='FLUZ',
                        PRECISION=0.040000000000000001,
                        MAILLE='M8',
                        CHAM_GD=FLUXRZ,
                        VALE_CALC=-1.413474677,
                        VALE_REFE=-1.4142136000000001,
                        REFERENCE='NON_DEFINI',),
                     _F(NOEUD='N4',
                        NOM_CMP='FLUZ',
                        PRECISION=0.040000000000000001,
                        MAILLE='M1',
                        CHAM_GD=FLUXRZ,
                        VALE_CALC=-0.702484775,
                        VALE_REFE=-0.70710680000000004,
                        REFERENCE='NON_DEFINI',),
                     _F(NOEUD='N6',
                        NOM_CMP='FLUZ',
                        PRECISION=0.040000000000000001,
                        MAILLE='M4',
                        CHAM_GD=FLUXRZ,
                        VALE_CALC=-0.706708828,
                        VALE_REFE=-0.70710680000000004,
                        REFERENCE='NON_DEFINI',),
                     _F(NOEUD='N7',
                        NOM_CMP='FLUX',
                        PRECISION=0.040000000000000001,
                        MAILLE='M5',
                        CHAM_GD=FLUXTH,
                        VALE_CALC=-2.803708768,
                        VALE_REFE=-2.8284272000000001,
                        REFERENCE='NON_DEFINI',),
                     _F(NOEUD='N8',
                        NOM_CMP='FLUX',
                        PRECISION=0.040000000000000001,
                        MAILLE='M6',
                        CHAM_GD=FLUXTH,
                        VALE_CALC=-2.823360009,
                        VALE_REFE=-2.8284272000000001,
                        REFERENCE='NON_DEFINI',),
                     _F(NOEUD='N9',
                        NOM_CMP='FLUX',
                        PRECISION=0.040000000000000001,
                        MAILLE='M8',
                        CHAM_GD=FLUXTH,
                        VALE_CALC=-2.840516614,
                        VALE_REFE=-2.8284272000000001,
                        REFERENCE='NON_DEFINI',),
                     _F(NOEUD='N4',
                        NOM_CMP='FLUX',
                        PRECISION=0.040000000000000001,
                        MAILLE='M1',
                        CHAM_GD=FLUXTH,
                        VALE_CALC=-1.369622096,
                        VALE_REFE=-1.4142136000000001,
                        REFERENCE='NON_DEFINI',),
                     _F(NOEUD='N6',
                        NOM_CMP='FLUX',
                        PRECISION=0.040000000000000001,
                        MAILLE='M4',
                        CHAM_GD=FLUXTH,
                        VALE_CALC=-1.457752838,
                        VALE_REFE=-1.4142136000000001,
                        REFERENCE='NON_DEFINI',),
                     _F(NOEUD='N7',
                        CRITERE='ABSOLU',
                        NOM_CMP='FLUY',
                        PRECISION=0.040000000000000001,
                        MAILLE='M5',
                        CHAM_GD=FLUXTH,
                        VALE_CALC= 7.18653622E-03,
                        VALE_REFE=0.0,
                        REFERENCE='NON_DEFINI',),
                     _F(NOEUD='N8',
                        CRITERE='ABSOLU',
                        NOM_CMP='FLUY',
                        PRECISION=0.040000000000000001,
                        MAILLE='M6',
                        CHAM_GD=FLUXTH,
                        VALE_CALC=0.016759070,
                        VALE_REFE=0.0,
                        REFERENCE='NON_DEFINI',),
                     _F(NOEUD='N9',
                        CRITERE='ABSOLU',
                        NOM_CMP='FLUY',
                        PRECISION=0.040000000000000001,
                        MAILLE='M8',
                        CHAM_GD=FLUXTH,
                        VALE_CALC=0.010868033,
                        VALE_REFE=0.0,
                        REFERENCE='NON_DEFINI',),
                     _F(NOEUD='N4',
                        CRITERE='ABSOLU',
                        NOM_CMP='FLUY',
                        PRECISION=0.040000000000000001,
                        MAILLE='M1',
                        CHAM_GD=FLUXTH,
                        VALE_CALC=0.023567428,
                        VALE_REFE=0.0,
                        REFERENCE='NON_DEFINI',),
                     _F(NOEUD='N6',
                        CRITERE='ABSOLU',
                        NOM_CMP='FLUY',
                        PRECISION=0.040000000000000001,
                        MAILLE='M4',
                        CHAM_GD=FLUXTH,
                        VALE_CALC=-8.51339268E-03,
                        VALE_REFE=0.0,
                        REFERENCE='NON_DEFINI',),
                     _F(NOEUD='N7',
                        CRITERE='ABSOLU',
                        NOM_CMP='FLUZ',
                        MAILLE='M5',
                        CHAM_GD=FLUXTH,
                        VALE_CALC=0.0,
                        TOLE_MACHINE=1.E-3,),
                     _F(NOEUD='N8',
                        CRITERE='ABSOLU',
                        NOM_CMP='FLUZ',
                        MAILLE='M6',
                        CHAM_GD=FLUXTH,
                        VALE_CALC=0.0,
                        TOLE_MACHINE=1.E-3,),
                     _F(NOEUD='N9',
                        CRITERE='ABSOLU',
                        NOM_CMP='FLUZ',
                        MAILLE='M8',
                        CHAM_GD=FLUXTH,
                        VALE_CALC=0.0,
                        TOLE_MACHINE=1.E-3,),
                     _F(NOEUD='N4',
                        CRITERE='ABSOLU',
                        NOM_CMP='FLUZ',
                        MAILLE='M1',
                        CHAM_GD=FLUXTH,
                        VALE_CALC=0.0,
                        TOLE_MACHINE=1.E-3,),
                     _F(NOEUD='N6',
                        CRITERE='ABSOLU',
                        NOM_CMP='FLUZ',
                        MAILLE='M4',
                        CHAM_GD=FLUXTH,
                        VALE_CALC=0.0,
                        TOLE_MACHINE=1.E-3,),
                     ),
          )

FIN( )
#
