# MODIF  DATE 07/06/2002   AUTEUR DURAND C.DURAND 
# TITRE CUBE ORTHOTROPE
#            CONFIGURATION MANAGEMENT OF EDF VERSION
# ======================================================================
# COPYRIGHT (C) 1991 - 2001  EDF R&D                  WWW.CODE-ASTER.ORG
# THIS PROGRAM IS FREE SOFTWARE; YOU CAN REDISTRIBUTE IT AND/OR MODIFY
# IT UNDER THE TERMS OF THE GNU GENERAL PUBLIC LICENSE AS PUBLISHED BY
# THE FREE SOFTWARE FOUNDATION; EITHER VERSION 2 OF THE LICENSE, OR   
# (AT YOUR OPTION) ANY LATER VERSION.                                 
#
# THIS PROGRAM IS DISTRIBUTED IN THE HOPE THAT IT WILL BE USEFUL, BUT 
# WITHOUT ANY WARRANTY; WITHOUT EVEN THE IMPLIED WARRANTY OF          
# MERCHANTABILITY OR FITNESS FOR A PARTICULAR PURPOSE. SEE THE GNU    
# GENERAL PUBLIC LICENSE FOR MORE DETAILS.                            
#
# YOU SHOULD HAVE RECEIVED A COPY OF THE GNU GENERAL PUBLIC LICENSE   
# ALONG WITH THIS PROGRAM; IF NOT, WRITE TO EDF R&D CODE_ASTER,       
#    1 AVENUE DU GENERAL DE GAULLE, 92141 CLAMART CEDEX, FRANCE.      
# ======================================================================
#
# MAILLES : HEXA8 (ET QUAD4)

DEBUT(  CODE=_F( NOM = 'TPLV07A',NIV_PUB_WEB='INTERNET') )

#
# LECTURE DU MAILLAGE --------------------------------------------------
#


MAIL=LIRE_MAILLAGE( )

MAIL=DEFI_GROUP(   reuse=MAIL,   MAILLAGE=MAIL,
         CREA_GROUP_MA=_F(  NOM = 'TOUT',   TOUT = 'OUI'))

#
# DEFINITION DES CHARGEMENTS ET DU MATERIAU ----------------------------
#

# ----- MATERIAU


MATER=DEFI_MATERIAU(   THER_ORTH=_F(  LAMBDA_L = 1.00, LAMBDA_T = 0.75,
                                        LAMBDA_N = 0.50,   RHO_CP = 1.)
                         )

#
# AFFECTATIONS: MATERIAU, MODELE, CHARGEMENT ---------------------------
#


CHMAT=AFFE_MATERIAU(   MAILLAGE=MAIL,
                           AFFE=_F(  TOUT = 'OUI',  MATER = MATER)
                        )

MOTH=AFFE_MODELE(   MAILLAGE=MAIL,
                        AFFE=_F(  TOUT = 'OUI',
                               PHENOMENE = 'THERMIQUE',
                               MODELISATION = '3D')
                      )

ORIEN=AFFE_CARA_ELEM(   MODELE=MOTH,
                            MASSIF=_F(  GROUP_MA = 'TOUT',
                                     ANGL_REP = (0.,0.,0.,))
                         )

FLU_Y=DEFI_FONCTION(  NOM_PARA='Y',
                           VALE=(-0.1E0,  60.E0,
                                  0.1E0, -60.E0, ),
                          INTERPOL='NON'
                          )

FLU_Z=DEFI_FONCTION(  NOM_PARA='Z',
                           VALE=(-0.1E0,  30.E0,
                                  0.1E0, -30.E0, ),
                               INTERPOL='LIN'
                          )

HCV=DEFI_CONSTANTE(   VALE=15.E0 )

TARY0=DEFI_FONCTION(  NOM_PARA='Y',
                           VALE=( 0.0E0,   30.E0,
                                  1.0E0,  -50.E0, ),
                           PROL_DROITE='LINEAIRE',
                          PROL_GAUCHE='LINEAIRE'
                        )

TARY1=DEFI_FONCTION(  NOM_PARA='Y',
                           VALE=( 0.0E0,  -30.E0,
                                  1.0E0, -110.E0, ),
                           PROL_DROITE='LINEAIRE',
                          PROL_GAUCHE='LINEAIRE'
                        )

TEX_ARR=DEFI_NAPPE(  NOM_PARA='Z',
                               PARA=( 0.0E0,   1.0E0, ),
                           FONCTION=( TARY0,    TARY1, ),
                             PROL_DROITE='LINEAIRE',
                            PROL_GAUCHE='LINEAIRE'
                          )

TAVY0=DEFI_FONCTION(  NOM_PARA='Y',
                           VALE=( 0.0E0,   15.E0,
                                  1.0E0,  -65.E0, ),
                           PROL_DROITE='LINEAIRE',
                          PROL_GAUCHE='LINEAIRE'
                        )

TAVY1=DEFI_FONCTION(  NOM_PARA='Y',
                           VALE=( 0.0E0,  -45.E0,
                                  1.0E0, -125.E0, ),
                           PROL_DROITE='LINEAIRE',
                          PROL_GAUCHE='LINEAIRE'
                        )

TEX_AVA=DEFI_NAPPE(  NOM_PARA='Z',
                               PARA=( 0.0E0,   1.0E0, ),
                           FONCTION=( TAVY0,    TAVY1, ),
                             PROL_DROITE='LINEAIRE',
                            PROL_GAUCHE='LINEAIRE'
                          )

CHTH=AFFE_CHAR_THER_F(   MODELE=MOTH,FLUX_REP=(
                            _F(  GROUP_MA = 'F_NPJI',   FLUN = FLU_Y),
                            _F(  GROUP_MA = 'F_RQKL',   FLUN = FLU_Y),
                            _F(  GROUP_MA = 'F_NPQR',   FLUN = FLU_Z),
                            _F(  GROUP_MA = 'F_IJKL',   FLUN = FLU_Z)),ECHANGE=(
                             _F(  GROUP_MA = 'F_NRLI', COEF_H = HCV,
                                                     TEMP_EXT = TEX_ARR),
                             _F(  GROUP_MA = 'F_PQKJ', COEF_H = HCV,
                                                     TEMP_EXT = TEX_AVA))
                        )

#
# DEFINITION DE LA STRATEGIE DE CALCUL ---------------------------------
#

#
# RESOLUTION -----------------------------------------------------------
#

TEMPE=THER_LINEAIRE(   MODELE=MOTH,
                           CHAM_MATER=CHMAT,
                            EXCIT=_F(  CHARGE = CHTH),
                            CARA_ELEM=ORIEN
                         )

#
# ANALYSE DES RESULTATS ------------------------------------------------
#

TPR=CREA_CHAMP(  OPERATION='EXTR', TYPE_CHAM='NOEU_TEMP_R',
NOM_CHAM='TEMP', RESULTAT=TEMPE,
                      NUME_ORDRE=0
                    )

FLN=CALC_CHAM_ELEM(   MODELE=MOTH,    TEMP=TPR,
                           CARA_ELEM=ORIEN,
                           CHAM_MATER=CHMAT,
                          OPTION='FLUX_ELNO_TEMP'
                        )

FLG=CALC_CHAM_ELEM(   MODELE=MOTH,    TEMP=TPR,
                           CARA_ELEM=ORIEN,
                           CHAM_MATER=CHMAT,
                          OPTION='FLUX_ELGA_TEMP'
                        )

TEST_RESU(CHAM_NO=(
#
# TEMPERATURES ----------------------------
#
   
#
# TEMPERATURES AUX POINTS O,A,B,C,...,S :
#
_F( CHAM_GD = TPR, NOEUD = 'N169',  NOM_CMP = 'TEMP',  VALE = 22.5,   PRECISION = .5E-2),
_F( CHAM_GD = TPR, NOEUD = 'N169',  NOM_CMP = 'TEMP',  VALE = 22.5,   PRECISION = .5E-1,
                                                  CRITERE = 'ABSOLU'),
_F( CHAM_GD = TPR, NOEUD = 'N5',    NOM_CMP = 'TEMP',  VALE = 35.0,   PRECISION = .5E-2),
_F( CHAM_GD = TPR, NOEUD = 'N5',    NOM_CMP = 'TEMP',  VALE = 35.0,   PRECISION = .5E-1,
                                                  CRITERE = 'ABSOLU'),
_F( CHAM_GD = TPR, NOEUD = 'N301',  NOM_CMP = 'TEMP',  VALE = 26.0,   PRECISION = .5E-2),
_F( CHAM_GD = TPR, NOEUD = 'N301',  NOM_CMP = 'TEMP',  VALE = 26.0,   PRECISION = .5E-1,
                                                  CRITERE = 'ABSOLU'),
_F( CHAM_GD = TPR, NOEUD = 'N337',  NOM_CMP = 'TEMP',  VALE = 10.0,   PRECISION = .5E-2),
_F( CHAM_GD = TPR, NOEUD = 'N337',  NOM_CMP = 'TEMP',  VALE = 10.0,   PRECISION = .5E-1,
                                                  CRITERE = 'ABSOLU'),
_F( CHAM_GD = TPR, NOEUD = 'N49',   NOM_CMP = 'TEMP',  VALE = 19.0,   PRECISION = .5E-2),
_F( CHAM_GD = TPR, NOEUD = 'N49',   NOM_CMP = 'TEMP',  VALE = 19.0,   PRECISION = .5E-1,
                                                  CRITERE = 'ABSOLU'),
_F( CHAM_GD = TPR, NOEUD = 'N151',  NOM_CMP = 'TEMP',  VALE = 30.5,   PRECISION = .5E-2),
_F( CHAM_GD = TPR, NOEUD = 'N151',  NOM_CMP = 'TEMP',  VALE = 30.5,   PRECISION = .5E-1,
                                                  CRITERE = 'ABSOLU'),
_F( CHAM_GD = TPR, NOEUD = 'N316',  NOM_CMP = 'TEMP',  VALE = 18.0,   PRECISION = .5E-2),
_F( CHAM_GD = TPR, NOEUD = 'N316',  NOM_CMP = 'TEMP',  VALE = 18.0,   PRECISION = .5E-1,
                                                  CRITERE = 'ABSOLU'),
_F( CHAM_GD = TPR, NOEUD = 'N196',  NOM_CMP = 'TEMP',  VALE = 14.5,   PRECISION = .5E-2),
_F( CHAM_GD = TPR, NOEUD = 'N196',  NOM_CMP = 'TEMP',  VALE = 14.5,   PRECISION = .5E-1,
                                                  CRITERE = 'ABSOLU'),
_F( CHAM_GD = TPR, NOEUD = 'N24',   NOM_CMP = 'TEMP',  VALE = 27.0,   PRECISION = .5E-2),
_F( CHAM_GD = TPR, NOEUD = 'N24',   NOM_CMP = 'TEMP',  VALE = 27.0,   PRECISION = .5E-1,
                                                  CRITERE = 'ABSOLU'),
_F( CHAM_GD = TPR, NOEUD = 'N1',    NOM_CMP = 'TEMP',  VALE = 29.0,   PRECISION = .5E-2),
_F( CHAM_GD = TPR, NOEUD = 'N1',    NOM_CMP = 'TEMP',  VALE = 29.0,   PRECISION = .5E-1,
                                                  CRITERE = 'ABSOLU'),
_F( CHAM_GD = TPR, NOEUD = 'N298',  NOM_CMP = 'TEMP',  VALE = 20.0,   PRECISION = .5E-2),
_F( CHAM_GD = TPR, NOEUD = 'N298',  NOM_CMP = 'TEMP',  VALE = 20.0,   PRECISION = .5E-1,
                                                  CRITERE = 'ABSOLU'),
_F( CHAM_GD = TPR, NOEUD = 'N340',  NOM_CMP = 'TEMP',  VALE = 4.0,   PRECISION = .5E-2),
_F( CHAM_GD = TPR, NOEUD = 'N340',  NOM_CMP = 'TEMP',  VALE = 4.0,   PRECISION = .5E-1,
                                                  CRITERE = 'ABSOLU'),
_F( CHAM_GD = TPR, NOEUD = 'N44',   NOM_CMP = 'TEMP',  VALE = 13.0,   PRECISION = .5E-2),
_F( CHAM_GD = TPR, NOEUD = 'N44',   NOM_CMP = 'TEMP',  VALE = 13.0,   PRECISION = .5E-1,
                                                  CRITERE = 'ABSOLU'),
_F( CHAM_GD = TPR, NOEUD = 'N172',  NOM_CMP = 'TEMP',  VALE = 16.5,   PRECISION = .5E-2),
_F( CHAM_GD = TPR, NOEUD = 'N172',  NOM_CMP = 'TEMP',  VALE = 16.5,   PRECISION = .5E-1,
                                                  CRITERE = 'ABSOLU'),
_F( CHAM_GD = TPR, NOEUD = 'N2',    NOM_CMP = 'TEMP',  VALE = 41.0,   PRECISION = .5E-2),
_F( CHAM_GD = TPR, NOEUD = 'N2',    NOM_CMP = 'TEMP',  VALE = 41.0,   PRECISION = .5E-1,
                                                  CRITERE = 'ABSOLU'),
_F( CHAM_GD = TPR, NOEUD = 'N297',  NOM_CMP = 'TEMP',  VALE = 32.0,   PRECISION = .5E-2),
_F( CHAM_GD = TPR, NOEUD = 'N297',  NOM_CMP = 'TEMP',  VALE = 32.0,   PRECISION = .5E-1,
                                                  CRITERE = 'ABSOLU'),
_F( CHAM_GD = TPR, NOEUD = 'N338',  NOM_CMP = 'TEMP',  VALE = 16.0,   PRECISION = .5E-2),
_F( CHAM_GD = TPR, NOEUD = 'N338',  NOM_CMP = 'TEMP',  VALE = 16.0,   PRECISION = .5E-1,
                                                  CRITERE = 'ABSOLU'),
_F( CHAM_GD = TPR, NOEUD = 'N43',   NOM_CMP = 'TEMP',  VALE = 25.0,   PRECISION = .5E-2),
_F( CHAM_GD = TPR, NOEUD = 'N43',   NOM_CMP = 'TEMP',  VALE = 25.0,   PRECISION = .5E-1,
                                                  CRITERE = 'ABSOLU'),
_F( CHAM_GD = TPR, NOEUD = 'N173',  NOM_CMP = 'TEMP',  VALE = 28.5,   PRECISION = .5E-2),
_F( CHAM_GD = TPR, NOEUD = 'N173',  NOM_CMP = 'TEMP',  VALE = 28.5,   PRECISION = .5E-1,
                                                  CRITERE = 'ABSOLU')),CHAM_ELEM=(
#
   
#
# FLUX SUIVANT X, Y ET Z  -------------------------
#
# POINT K
#
_F( CHAM_GD = FLN, MAILLE = 'M211',
             NOEUD = 'N340',  NOM_CMP = 'FLUX',  VALE = 45.,    PRECISION = 1.E-2),
_F( CHAM_GD = FLN, MAILLE = 'M211',
             NOEUD = 'N340',  NOM_CMP = 'FLUX',  VALE = 45.,    PRECISION = 5.E-1,
                                                  CRITERE = 'ABSOLU'),
_F( CHAM_GD = FLN, MAILLE = 'M211',
             NOEUD = 'N340',  NOM_CMP = 'FLUY',  VALE = 60.,    PRECISION = 1.E-2),
_F( CHAM_GD = FLN, MAILLE = 'M211',
             NOEUD = 'N340',  NOM_CMP = 'FLUY',  VALE = 60.,    PRECISION = 5.E-1,
                                                  CRITERE = 'ABSOLU'),
_F( CHAM_GD = FLN, MAILLE = 'M211',
             NOEUD = 'N340',  NOM_CMP = 'FLUZ',  VALE = 30.,    PRECISION = 1.E-2),
_F( CHAM_GD = FLN, MAILLE = 'M211',
             NOEUD = 'N340',  NOM_CMP = 'FLUZ',  VALE = 30.,    PRECISION = 5.E-1,
                                                  CRITERE = 'ABSOLU'),
#
# POINT C
#
_F( CHAM_GD = FLN, MAILLE = 'M199',
             NOEUD = 'N337',  NOM_CMP = 'FLUX',  VALE = 45.,    PRECISION = 1.E-2),
_F( CHAM_GD = FLN, MAILLE = 'M199',
             NOEUD = 'N337',  NOM_CMP = 'FLUX',  VALE = 45.,    PRECISION = 5.E-1,
                                                  CRITERE = 'ABSOLU'),
_F( CHAM_GD = FLN, MAILLE = 'M199',
             NOEUD = 'N337',  NOM_CMP = 'FLUY',  VALE = 60.,    PRECISION = 1.E-2),
_F( CHAM_GD = FLN, MAILLE = 'M199',
             NOEUD = 'N337',  NOM_CMP = 'FLUY',  VALE = 60.,    PRECISION = 5.E-1,
                                                  CRITERE = 'ABSOLU'),
_F( CHAM_GD = FLN, MAILLE = 'M199',
             NOEUD = 'N337',  NOM_CMP = 'FLUZ',  VALE = 30.,    PRECISION = 1.E-2),
_F( CHAM_GD = FLN, MAILLE = 'M199',
             NOEUD = 'N337',  NOM_CMP = 'FLUZ',  VALE = 30.,    PRECISION = 5.E-1,
                                                  CRITERE = 'ABSOLU'),
#
# POINT F
#
_F( CHAM_GD = FLN, MAILLE = 'M201',
             NOEUD = 'N316',  NOM_CMP = 'FLUX',  VALE = 45.,    PRECISION = 1.E-2),
_F( CHAM_GD = FLN, MAILLE = 'M201',
             NOEUD = 'N316',  NOM_CMP = 'FLUX',  VALE = 45.,    PRECISION = 5.E-1,
                                                  CRITERE = 'ABSOLU'),
_F( CHAM_GD = FLN, MAILLE = 'M201',
             NOEUD = 'N316',  NOM_CMP = 'FLUY',  VALE = 60.,    PRECISION = 1.E-2),
_F( CHAM_GD = FLN, MAILLE = 'M201',
             NOEUD = 'N316',  NOM_CMP = 'FLUY',  VALE = 60.,    PRECISION = 5.E-1,
                                                  CRITERE = 'ABSOLU'),
_F( CHAM_GD = FLN, MAILLE = 'M201',
             NOEUD = 'N316',  NOM_CMP = 'FLUZ',  VALE = 30.,    PRECISION = 1.E-2),
_F( CHAM_GD = FLN, MAILLE = 'M201',
             NOEUD = 'N316',  NOM_CMP = 'FLUZ',  VALE = 30.,    PRECISION = 5.E-1,
                                                  CRITERE = 'ABSOLU'),
#
# POINT O
#
_F( CHAM_GD = FLN, MAILLE = 'M129',
             NOEUD = 'N169',  NOM_CMP = 'FLUX',  VALE = 45.,    PRECISION = 1.E-2),
_F( CHAM_GD = FLN, MAILLE = 'M129',
             NOEUD = 'N169',  NOM_CMP = 'FLUX',  VALE = 45.,    PRECISION = 5.E-1,
                                                  CRITERE = 'ABSOLU'),
_F( CHAM_GD = FLN, MAILLE = 'M129',
             NOEUD = 'N169',  NOM_CMP = 'FLUY',  VALE = 60.,    PRECISION = 1.E-2),
_F( CHAM_GD = FLN, MAILLE = 'M129',
             NOEUD = 'N169',  NOM_CMP = 'FLUY',  VALE = 60.,    PRECISION = 5.E-1,
                                                  CRITERE = 'ABSOLU'),
_F( CHAM_GD = FLN, MAILLE = 'M129',
             NOEUD = 'N169',  NOM_CMP = 'FLUZ',  VALE = 30.,    PRECISION = 1.E-2),
_F( CHAM_GD = FLN, MAILLE = 'M129',
             NOEUD = 'N169',  NOM_CMP = 'FLUZ',  VALE = 30.,    PRECISION = 5.E-1,
                                                  CRITERE = 'ABSOLU'),
#
# POINTS D'INTEGRATION...
#
_F( CHAM_GD = FLN, MAILLE = 'M129',
             POINT = 1,     NOM_CMP = 'FLUX',  VALE = 45.,    PRECISION = 1.E-2),
_F( CHAM_GD = FLG, MAILLE = 'M129',
             POINT = 1,     NOM_CMP = 'FLUX',  VALE = 45.,    PRECISION = 1.E-2),
_F( CHAM_GD = FLN, MAILLE = 'M129',
             POINT = 1,     NOM_CMP = 'FLUY',  VALE = 60.,    PRECISION = 1.E-2),
_F( CHAM_GD = FLG, MAILLE = 'M129',
             POINT = 1,     NOM_CMP = 'FLUY',  VALE = 60.,    PRECISION = 1.E-2),
_F( CHAM_GD = FLN, MAILLE = 'M129',
             POINT = 1,     NOM_CMP = 'FLUZ',  VALE = 30.,    PRECISION = 1.E-2),
_F( CHAM_GD = FLG, MAILLE = 'M129',
             POINT = 1,     NOM_CMP = 'FLUZ',  VALE = 30.,    PRECISION = 1.E-2),
_F( CHAM_GD = FLG, MAILLE = 'M129',
             POINT = 2,     NOM_CMP = 'FLUX',  VALE = 45.,    PRECISION = 1.E-2),
_F( CHAM_GD = FLG, MAILLE = 'M129',
             POINT = 3,     NOM_CMP = 'FLUX',  VALE = 45.,    PRECISION = 1.E-2),
_F( CHAM_GD = FLG, MAILLE = 'M129',
             POINT = 4,     NOM_CMP = 'FLUX',  VALE = 45.,    PRECISION = 1.E-2),
_F( CHAM_GD = FLG, MAILLE = 'M129',
             POINT = 5,     NOM_CMP = 'FLUX',  VALE = 45.,    PRECISION = 1.E-2),
_F( CHAM_GD = FLG, MAILLE = 'M129',
             POINT = 6,     NOM_CMP = 'FLUX',  VALE = 45.,    PRECISION = 1.E-2),
_F( CHAM_GD = FLG, MAILLE = 'M129',
             POINT = 7,     NOM_CMP = 'FLUX',  VALE = 45.,    PRECISION = 1.E-2),
_F( CHAM_GD = FLG, MAILLE = 'M129',
             POINT = 8,     NOM_CMP = 'FLUX',  VALE = 45.,    PRECISION = 1.E-2))
#
             )

#
# FIN ------------------------------------------------------------------
#

FIN()
#
#
