# MODIF  DATE 07/06/2002   AUTEUR DURAND C.DURAND 
# TITRE TRANSPORT DE CHALEUR PAR CONVECTION DANS UN PARALLELEPIPEDE
#            CONFIGURATION MANAGEMENT OF EDF VERSION
# ======================================================================
# COPYRIGHT (C) 1991 - 2001  EDF R&D                  WWW.CODE-ASTER.ORG
# THIS PROGRAM IS FREE SOFTWARE; YOU CAN REDISTRIBUTE IT AND/OR MODIFY
# IT UNDER THE TERMS OF THE GNU GENERAL PUBLIC LICENSE AS PUBLISHED BY
# THE FREE SOFTWARE FOUNDATION; EITHER VERSION 2 OF THE LICENSE, OR   
# (AT YOUR OPTION) ANY LATER VERSION.                                 
#
# THIS PROGRAM IS DISTRIBUTED IN THE HOPE THAT IT WILL BE USEFUL, BUT 
# WITHOUT ANY WARRANTY; WITHOUT EVEN THE IMPLIED WARRANTY OF          
# MERCHANTABILITY OR FITNESS FOR A PARTICULAR PURPOSE. SEE THE GNU    
# GENERAL PUBLIC LICENSE FOR MORE DETAILS.                            
#
# YOU SHOULD HAVE RECEIVED A COPY OF THE GNU GENERAL PUBLIC LICENSE   
# ALONG WITH THIS PROGRAM; IF NOT, WRITE TO EDF R&D CODE_ASTER,       
#    1 AVENUE DU GENERAL DE GAULLE, 92141 CLAMART CEDEX, FRANCE.      
# ======================================================================
DEBUT(  CODE=_F( NOM = 'TPLV102A',NIV_PUB_WEB='INTERNET') )

ENTHAL=DEFI_FONCTION(        NOM_PARA='TEMP',
                                   VALE=(    0.0,       0.0,
                                          1000.0,    1000.0, ),
           PROL_DROITE='LINEAIRE',    PROL_GAUCHE='LINEAIRE')

CONDUC=DEFI_FONCTION(        NOM_PARA='TEMP',
                                    VALE=(  0.0,      0.000001,
                                         1000.0,      0.000001, ),
        PROL_DROITE='CONSTANT',      PROL_GAUCHE='CONSTANT' )

MATCAV=DEFI_MATERIAU(  THER_NL=_F(  LAMBDA = CONDUC,
                                    BETA = ENTHAL))

CAVITE=LIRE_MAILLAGE( )

CAVITE=DEFI_GROUP( reuse=CAVITE,  MAILLAGE=CAVITE,CREA_GROUP_NO=(
                         _F(  GROUP_MA = 'C1'),
                         _F( GROUP_MA = 'C2'),
                         _F(  GROUP_MA = 'C3'),
                         _F( GROUP_MA = 'C4'),
                         _F( GROUP_MA = 'D2'),
                         _F( GROUP_MA = 'D3'))
                      )

CHMAT=AFFE_MATERIAU(  MAILLAGE=CAVITE,
                        AFFE=_F(  TOUT = 'OUI', MATER = MATCAV) )

MODCAV=AFFE_MODELE(  MAILLAGE=CAVITE,
                     AFFE=_F( TOUT = 'OUI', MODELISATION = 'PLAN',
                                      PHENOMENE = 'THERMIQUE'))

CHAVI=CREA_CHAMP( OPERATION='AFFE', TYPE_CHAM='NOEU_DEPL_R',
MAILLAGE=CAVITE,
     AFFE=_F(   TOUT = 'OUI', NOM_CMP = ('DX', 'DY',), VALE = (0.3827, 0.9239,))
                       )

CHTIMP=AFFE_CHAR_THER(   MODELE=MODCAV,TEMP_IMPO=(
                           _F( GROUP_NO = 'D2', TEMP = 0.0),
                           _F( GROUP_NO = 'C4', TEMP = 1.0),
                           _F( GROUP_NO = 'C1', TEMP = 1.0)),
                          CONVECTION=_F( VITESSE = CHAVI)
                       )

RESU=THER_NON_LINE_MO(   MODELE=MODCAV,
                                CHAM_MATER=CHMAT,
                               EXCIT=_F( CHARGE = CHTIMP),
                                CONVERGENCE=_F( CRIT_TEMP_RELA = 1.E-4,
                                             CRIT_ENTH_RELA = 1.E-3,
                                             ITER_GLOB_MAXI = 30)
                            )

T=CREA_CHAMP( OPERATION='EXTR',  TYPE_CHAM='NOEU_TEMP_R',
                   RESULTAT=RESU,   NOM_CHAM='TEMP', NUME_ORDRE=0 )

TEST_RESU(CHAM_NO=( 
   _F( CHAM_GD = T, NOEUD = 'N31',    NOM_CMP = 'TEMP', VALE = 1.,
             PRECISION = 0.00125, CRITERE = 'ABSOLU'),
   _F( CHAM_GD = T, NOEUD = 'N29',    NOM_CMP = 'TEMP', VALE = 1.,
             PRECISION = 0.0002, CRITERE = 'ABSOLU'),
   _F( CHAM_GD = T, NOEUD = 'N27',    NOM_CMP = 'TEMP', VALE = 1.,
             PRECISION = 0.003, CRITERE = 'ABSOLU'),
   _F( CHAM_GD = T, NOEUD = 'N25',    NOM_CMP = 'TEMP', VALE = 1.,
             PRECISION = 0.100, CRITERE = 'ABSOLU'),
   _F( CHAM_GD = T, NOEUD = 'N23',    NOM_CMP = 'TEMP', VALE = 0.,
             PRECISION = 0.012, CRITERE = 'ABSOLU'),
   _F( CHAM_GD = T, NOEUD = 'N1',    NOM_CMP = 'TEMP', VALE = 0.,
             PRECISION = 0.0000000001, CRITERE = 'ABSOLU'))
         )

FIN()
#
