# MODIF  DATE 05/03/2012   AUTEUR PELLET J.PELLET 
# TITRE CYLINDRE SOUMIS A DES COND. AUX LIMI. NON AXISYMETRIQUES TRIA6
#            CONFIGURATION MANAGEMENT OF EDF VERSION
# ======================================================================
# COPYRIGHT (C) 1991 - 2012  EDF R&D                  WWW.CODE-ASTER.ORG
# THIS PROGRAM IS FREE SOFTWARE; YOU CAN REDISTRIBUTE IT AND/OR MODIFY
# IT UNDER THE TERMS OF THE GNU GENERAL PUBLIC LICENSE AS PUBLISHED BY
# THE FREE SOFTWARE FOUNDATION; EITHER VERSION 2 OF THE LICENSE, OR
# (AT YOUR OPTION) ANY LATER VERSION.
#
# THIS PROGRAM IS DISTRIBUTED IN THE HOPE THAT IT WILL BE USEFUL, BUT
# WITHOUT ANY WARRANTY; WITHOUT EVEN THE IMPLIED WARRANTY OF
# MERCHANTABILITY OR FITNESS FOR A PARTICULAR PURPOSE. SEE THE GNU
# GENERAL PUBLIC LICENSE FOR MORE DETAILS.
#
# YOU SHOULD HAVE RECEIVED A COPY OF THE GNU GENERAL PUBLIC LICENSE
# ALONG WITH THIS PROGRAM; IF NOT, WRITE TO EDF R&D CODE_ASTER,
#    1 AVENUE DU GENERAL DE GAULLE, 92141 CLAMART CEDEX, FRANCE.
# ======================================================================
# CAS TEST SSLV109A
# CAS-TEST THERMIQUE FOURIER HARMONIQUE 1
#
# MODELISATION : ELEMENTS THERMIQUE AXIS_FOURIER (TRIA6)
# MAILLAGE     : ALIBABA ==> ASTER
#
# ----------------------------------------------------------------------
# GROUPES DE MAILLES: FLUX_IMPO : GRMA6
#                     ECHANGE   : GRMA7
# ----------------------------------------------------------------------
#
DEBUT(CODE=_F(NOM='TPLV100A', NIV_PUB_WEB='INTERNET'), DEBUG=_F(SDVERI='OUI'))

M=LIRE_MAILLAGE(FORMAT='MED', )

MO=AFFE_MODELE(  MAILLAGE=M,
                         AFFE=_F(  TOUT = 'OUI',
                                PHENOMENE = 'THERMIQUE',
                                MODELISATION = 'AXIS_FOURIER') )

MA=DEFI_MATERIAU(  THER=_F(  LAMBDA = 1.,   RHO_CP = 0.) )

CM=AFFE_MATERIAU(  MAILLAGE=M,
                           AFFE=_F(  TOUT = 'OUI',   MATER = MA) )

CH=AFFE_CHAR_THER(     MODELE=MO,
                         FLUX_REP=_F(  GROUP_MA = 'GRMA6',  FLUN = 2.),
                          ECHANGE=_F(  GROUP_MA = 'GRMA7',
                                    COEF_H = 2.,   TEMP_EXT = 2.),
                           SOURCE=_F(  TOUT = 'OUI',  SOUR = -3.),TEMP_IMPO=(
                        _F(  NOEUD = 'N1',   TEMP = 0.),
                                  _F(  NOEUD = 'N2',   TEMP = 0.),
                                  _F(  NOEUD = 'N3',   TEMP = 0.),
                                  _F(  NOEUD = 'N12',  TEMP = 0.),
                                  _F(  NOEUD = 'N16',  TEMP = 0.)) )

KE=CALC_MATR_ELEM(  MODELE=MO,        OPTION='RIGI_THER',
                        CHARGE=CH,        CHAM_MATER=CM,
                        MODE_FOURIER=1                        )

VE=CALC_VECT_ELEM(  OPTION='CHAR_THER',
                        CHARGE=CH,     )

NU=NUME_DDL(  MATR_RIGI=KE   )

KAS=ASSE_MATRICE(  MATR_ELEM=KE,    NUME_DDL=NU   )

VAS=ASSE_VECTEUR(  VECT_ELEM=VE,    NUME_DDL=NU   )

KAS=FACTORISER(reuse=KAS,  MATR_ASSE=KAS   )

TEMP=RESOUDRE(  MATR=KAS,    CHAM_NO=VAS   )

FLUXNO=CALC_CHAM_ELEM(  MODELE=MO,        OPTION='FLUX_ELNO',
                            TEMP=TEMP,        CHAM_MATER=CM,
                            MODE_FOURIER=1                   )

TEST_RESU(CHAM_NO=(
           _F(  CHAM_GD = TEMP,  PRECISION = 1.E-2,
             NOEUD = 'N7',  NOM_CMP = 'TEMP',  VALE = 1.),
           _F(  CHAM_GD = TEMP,  PRECISION = 1.E-2,
             NOEUD = 'N8',  NOM_CMP = 'TEMP',  VALE = 1.),
           _F(  CHAM_GD = TEMP,  PRECISION = 1.E-2,
             NOEUD = 'N9',  NOM_CMP = 'TEMP',  VALE = 1.),
           _F(  CHAM_GD = TEMP,  PRECISION = 1.E-2,
             NOEUD = 'N4',  NOM_CMP = 'TEMP',  VALE = 0.25),
           _F(  CHAM_GD = TEMP,  PRECISION = 1.E-2,
             NOEUD = 'N6',  NOM_CMP = 'TEMP',  VALE = 0.25)) )

#--------------------------------------------------------------------

TR1=POST_RELEVE_T(
                ACTION=_F(  INTITULE = 'EXT_FLUX',
                         NOEUD = ( 'N7',  'N8',  'N9',  'N4',  'N6', ),
                         CHAM_GD = FLUXNO,
                         NOM_CMP = ( 'FLUX',  'FLUY',  'FLUZ', ),
                         OPERATION = 'EXTRACTION')
                       )

#

TEST_TABLE(       TABLE=TR1,
                     FILTRE=_F(  NOM_PARA = 'NOEUD',
                              VALE_K = 'N7'),
                   NOM_PARA='FLUX',
                  PRECISION=1.0E-2,
                        VALE=-2.0               )

TEST_TABLE(       TABLE=TR1,
                     FILTRE=_F(  NOM_PARA = 'NOEUD',
                              VALE_K = 'N8'),
                   NOM_PARA='FLUX',
                  PRECISION=1.0E-2,
                       VALE=-2.0                )

TEST_TABLE(       TABLE=TR1,
                     FILTRE=_F(  NOM_PARA = 'NOEUD',
                              VALE_K = 'N9'),
                   NOM_PARA='FLUX',
                  PRECISION=1.0E-2,
                       VALE=-2.0                )

TEST_TABLE(       TABLE=TR1,
                     FILTRE=_F(  NOM_PARA = 'NOEUD',
                              VALE_K = 'N4'),
                   NOM_PARA='FLUX',
                  PRECISION=1.0E-2,
                       VALE=-1.0                )

TEST_TABLE(       TABLE=TR1,
                     FILTRE=_F(  NOM_PARA = 'NOEUD',
                              VALE_K = 'N6'),
                   NOM_PARA='FLUX',
                  PRECISION=1.0E-2,
                       VALE=-1.0                )

#

TEST_TABLE(       TABLE=TR1,
                     FILTRE=_F(  NOM_PARA = 'NOEUD',
                              VALE_K = 'N7'),
                   NOM_PARA='FLUZ',
                  PRECISION=1.0E-2,
                       VALE=1.0                )

TEST_TABLE(       TABLE=TR1,
                     FILTRE=_F(  NOM_PARA = 'NOEUD',
                              VALE_K = 'N8'),
                   NOM_PARA='FLUZ',
                  PRECISION=1.0E-2,
                       VALE=1.0                )

TEST_TABLE(       TABLE=TR1,
                     FILTRE=_F(  NOM_PARA = 'NOEUD',
                              VALE_K = 'N9'),
                   NOM_PARA='FLUZ',
                  PRECISION=1.0E-2,
                       VALE=1.0                )

TEST_TABLE(       TABLE=TR1,
                     FILTRE=_F(  NOM_PARA = 'NOEUD',
                              VALE_K = 'N4'),
                   NOM_PARA='FLUZ',
                  PRECISION=1.0E-2,
                       VALE=0.5                )

TEST_TABLE(       TABLE=TR1,
                     FILTRE=_F(  NOM_PARA = 'NOEUD',
                              VALE_K = 'N6'),
                   NOM_PARA='FLUZ',
                  PRECISION=1.0E-2,
                       VALE=0.5                )

#

TEST_TABLE(       TABLE=TR1,
                     FILTRE=_F(  NOM_PARA = 'NOEUD',
                              VALE_K = 'N7'),
                   NOM_PARA='FLUY',
                    CRITERE='ABSOLU',
                  PRECISION=1.0E-2,
                       VALE=0.0                )

TEST_TABLE(       TABLE=TR1,
                     FILTRE=_F(  NOM_PARA = 'NOEUD',
                              VALE_K = 'N8'),
                   NOM_PARA='FLUY',
                    CRITERE='ABSOLU',
                  PRECISION=1.0E-2,
                       VALE=0.0                )

TEST_TABLE(       TABLE=TR1,
                     FILTRE=_F(  NOM_PARA = 'NOEUD',
                              VALE_K = 'N9'),
                   NOM_PARA='FLUY',
                    CRITERE='ABSOLU',
                  PRECISION=1.0E-2,
                       VALE=0.0                )

TEST_TABLE(       TABLE=TR1,
                     FILTRE=_F(  NOM_PARA = 'NOEUD',
                              VALE_K = 'N4'),
                   NOM_PARA='FLUY',
                    CRITERE='ABSOLU',
                  PRECISION=1.0E-2,
                       VALE=0.0                )

TEST_TABLE(       TABLE=TR1,
                     FILTRE=_F(  NOM_PARA = 'NOEUD',
                              VALE_K = 'N6'),
                   NOM_PARA='FLUY',
                    CRITERE='ABSOLU',
                  PRECISION=1.0E-2,
                       VALE=0.0                )

#-----------------------------------------------------------------------
#                     RECOMBINAISON DE FOURIER
# ----------------------------------------------------------------------


RTEMP=CREA_RESU(OPERATION='AFFE',TYPE_RESU='FOURIER_THER',NOM_CHAM='TEMP',
           AFFE=_F( CHAM_GD=TEMP,NUME_MODE=1,TYPE_MODE='SYME'),)

#RTEMP2=CALC_CHAMP(RESULTAT=RTEMP,MODELE=MO,NUME_MODE=1,  THERMIQUE=('FLUX_ELNO'))

#RTEMP2=CALC_CHAMP(reuse=RTEMP2,RESULTAT=RTEMP2,THERMIQUE='FLUX_NOEU')

TRTEMP2=POST_RELEVE_T(
                ACTION=_F(  INTITULE = 'TEMP',
                         NOEUD = ( 'N7',  'N8',  'N9',  'N4',  'N6', ),
                         RESULTAT=RTEMP,   NOM_CHAM=( 'TEMP',),
                         NOM_CMP = ( 'TEMP', ),
                         OPERATION = 'EXTRACTION')
                       )


FOUR45=COMB_FOURIER(   RESULTAT=RTEMP,
                       NOM_CHAM=( 'TEMP',),
                       ANGL=( 45., ),)

TEMP45=CREA_CHAMP(OPERATION='EXTR',TYPE_CHAM='NOEU_TEMP_R',
             RESULTAT=FOUR45,ANGL=45.,NOM_CHAM='TEMP')

FOUR135=COMB_FOURIER(   RESULTAT=RTEMP,
                       NOM_CHAM=( 'TEMP',),
                       ANGL=( 135., ),)

TEMP135=CREA_CHAMP(OPERATION='EXTR',TYPE_CHAM='NOEU_TEMP_R',
             RESULTAT=FOUR135,ANGL=135.,NOM_CHAM='TEMP')

RFLUX=CREA_RESU(OPERATION='AFFE',TYPE_RESU='FOURIER_THER',NOM_CHAM='FLUX_ELNO',
           AFFE=_F( CHAM_GD=FLUXNO,NUME_MODE=1,TYPE_MODE='SYME'),)

IMPR_RESU(RESU=_F(RESULTAT=RFLUX,NOM_CHAM='FLUX_ELNO',),)
IMPR_RESU(FORMAT='MED',RESU=_F(RESULTAT=RFLUX,NOM_CHAM='FLUX_ELNO',),)

FOUR45F=COMB_FOURIER(   RESULTAT=RFLUX,
                       NOM_CHAM=( 'FLUX_ELNO',),
                       ANGL=( 45., ),)

FLUX45=CREA_CHAMP(OPERATION='EXTR',TYPE_CHAM='ELNO_FLUX_R',
             RESULTAT=FOUR45F,ANGL=45.,NOM_CHAM='FLUX_ELNO')

FOUR135F=COMB_FOURIER(   RESULTAT=RFLUX,
                       NOM_CHAM=( 'FLUX_ELNO',),
                       ANGL=( 135., ),)

FLUX135=CREA_CHAMP(OPERATION='EXTR',TYPE_CHAM='ELNO_FLUX_R',
             RESULTAT=FOUR135F,ANGL=135.,NOM_CHAM='FLUX_ELNO')


TEMPRZ = CREA_CHAMP(OPERATION='ASSE',MODELE=MO,TYPE_CHAM='NOEU_TEMP_R',
                    OPTION='TEMP',
                   ASSE=(_F( CHAM_GD=TEMP45,TOUT='OUI',CUMUL='OUI',COEF_R=1.),
                         _F( CHAM_GD=TEMP135,TOUT='OUI',CUMUL='OUI',COEF_R=1.),),)

TEMPTH = CREA_CHAMP(OPERATION='ASSE',MODELE=MO,TYPE_CHAM='NOEU_TEMP_R',
                   OPTION='TEMP',
                   ASSE=(_F( CHAM_GD=TEMP45,TOUT='OUI',CUMUL='OUI',COEF_R=1.),
                         _F( CHAM_GD=TEMP135,TOUT='OUI',CUMUL='OUI',COEF_R=-1.),),)

FLUXRZ = CREA_CHAMP(OPERATION='ASSE',MODELE=MO,TYPE_CHAM='ELNO_FLUX_R',
                   OPTION='FLUX_ELNO',
                   ASSE=(_F( CHAM_GD=FLUX45,TOUT='OUI',CUMUL='OUI',COEF_R=1.),
                         _F( CHAM_GD=FLUX135,TOUT='OUI',CUMUL='OUI',COEF_R=1.),),)

FLUXTH = CREA_CHAMP(OPERATION='ASSE',MODELE=MO,TYPE_CHAM='ELNO_FLUX_R',
                   OPTION='FLUX_ELNO',
                   ASSE=(_F( CHAM_GD=FLUX45,TOUT='OUI',CUMUL='OUI',COEF_R=1.),
                         _F( CHAM_GD=FLUX135,TOUT='OUI',CUMUL='OUI',COEF_R=-1.),),)

TEST_RESU(CHAM_NO=(
           _F(  CHAM_GD = TEMP45,  PRECISION = 1.E-2,
             NOEUD = 'N7',  NOM_CMP = 'TEMP',  VALE = 0.7071068),
           _F(  CHAM_GD = TEMP45,  PRECISION = 1.E-2,
             NOEUD = 'N8',  NOM_CMP = 'TEMP',  VALE = 0.7071068),
           _F(  CHAM_GD = TEMP45,  PRECISION = 1.E-2,
             NOEUD = 'N9',  NOM_CMP = 'TEMP',  VALE = 0.7071068),
           _F(  CHAM_GD = TEMP45,  PRECISION = 1.E-2,
             NOEUD = 'N4',  NOM_CMP = 'TEMP',  VALE = 0.1767767),
           _F(  CHAM_GD = TEMP45,  PRECISION = 1.E-2,
             NOEUD = 'N6',  NOM_CMP = 'TEMP',  VALE = 0.1767767),

           _F(  CHAM_GD = TEMP135,  PRECISION = 1.E-2,
             NOEUD = 'N7',  NOM_CMP = 'TEMP',  VALE = -0.7071068),
           _F(  CHAM_GD = TEMP135,  PRECISION = 1.E-2,
             NOEUD = 'N8',  NOM_CMP = 'TEMP',  VALE = -0.7071068),
           _F(  CHAM_GD = TEMP135,  PRECISION = 1.E-2,
             NOEUD = 'N9',  NOM_CMP = 'TEMP',  VALE = -0.7071068),
           _F(  CHAM_GD = TEMP135,  PRECISION = 1.E-2,
             NOEUD = 'N4',  NOM_CMP = 'TEMP',  VALE = -0.1767767),
           _F(  CHAM_GD = TEMP135,  PRECISION = 1.E-2,
             NOEUD = 'N6',  NOM_CMP = 'TEMP',  VALE = -0.1767767),

           _F(  CHAM_GD = TEMPRZ,  CRITERE = 'ABSOLU',
             NOEUD = 'N7',  NOM_CMP = 'TEMP',  VALE = 0.),
           _F(  CHAM_GD = TEMPRZ,  CRITERE = 'ABSOLU',
             NOEUD = 'N8',  NOM_CMP = 'TEMP',  VALE = 0.),
           _F(  CHAM_GD = TEMPRZ,  CRITERE = 'ABSOLU',
             NOEUD = 'N9',  NOM_CMP = 'TEMP',  VALE = 0.),
           _F(  CHAM_GD = TEMPRZ,  CRITERE = 'ABSOLU',
             NOEUD = 'N4',  NOM_CMP = 'TEMP',  VALE = 0.),
           _F(  CHAM_GD = TEMPRZ,  CRITERE = 'ABSOLU',
             NOEUD = 'N6',  NOM_CMP = 'TEMP',  VALE = 0.),

           _F(  CHAM_GD = TEMPTH,  PRECISION = 1.E-2,
             NOEUD = 'N7',  NOM_CMP = 'TEMP',  VALE = 1.4142136),
           _F(  CHAM_GD = TEMPTH,  PRECISION = 1.E-2,
             NOEUD = 'N8',  NOM_CMP = 'TEMP',  VALE = 1.4142136),
           _F(  CHAM_GD = TEMPTH,  PRECISION = 1.E-2,
             NOEUD = 'N9',  NOM_CMP = 'TEMP',  VALE = 1.4142136),
           _F(  CHAM_GD = TEMPTH,  PRECISION = 1.E-2,
             NOEUD = 'N4',  NOM_CMP = 'TEMP',  VALE = 0.3535534),
           _F(  CHAM_GD = TEMPTH,  PRECISION = 1.E-2,
             NOEUD = 'N6',  NOM_CMP = 'TEMP',  VALE = 0.3535534)) )

TEST_RESU(CHAM_ELEM=(
         _F(  CHAM_GD = FLUX45,  PRECISION = 4.E-2,
           MAILLE = 'M5',  NOEUD = 'N7',  NOM_CMP = 'FLUX',  VALE = -1.4142136),
         _F(  CHAM_GD = FLUX45,  PRECISION = 4.E-2,
           MAILLE = 'M6',  NOEUD = 'N8',  NOM_CMP = 'FLUX',  VALE = -1.4142136),
         _F(  CHAM_GD = FLUX45,  PRECISION = 4.E-2,
           MAILLE = 'M8',  NOEUD = 'N9',  NOM_CMP = 'FLUX',  VALE = -1.4142136),
         _F(  CHAM_GD = FLUX45,  PRECISION = 4.E-2,
           MAILLE = 'M1',  NOEUD = 'N4',  NOM_CMP = 'FLUX',  VALE = -0.7071068),
         _F(  CHAM_GD = FLUX45,  PRECISION = 4.E-2,
           MAILLE = 'M4',  NOEUD = 'N6',  NOM_CMP = 'FLUX',  VALE = -0.7071068),

           _F(  CHAM_GD = FLUX45,  CRITERE = 'ABSOLU',  PRECISION = 4.E-2,
             MAILLE = 'M5',  NOEUD = 'N7',  NOM_CMP = 'FLUY',  VALE = 0.),
           _F(  CHAM_GD = FLUX45,  CRITERE = 'ABSOLU',  PRECISION = 4.E-2,
             MAILLE = 'M6',  NOEUD = 'N8',  NOM_CMP = 'FLUY',  VALE = 0.),
           _F(  CHAM_GD = FLUX45,  CRITERE = 'ABSOLU',  PRECISION = 4.E-2,
             MAILLE = 'M8',  NOEUD = 'N9',  NOM_CMP = 'FLUY',  VALE = 0.),
           _F(  CHAM_GD = FLUX45,  CRITERE = 'ABSOLU',  PRECISION = 4.E-2,
             MAILLE = 'M1',  NOEUD = 'N4',  NOM_CMP = 'FLUY',  VALE = 0.),
           _F(  CHAM_GD = FLUX45,  CRITERE = 'ABSOLU',  PRECISION = 4.E-2,
             MAILLE = 'M4',  NOEUD = 'N6',  NOM_CMP = 'FLUY',  VALE = 0.),

         _F(  CHAM_GD = FLUX45,  PRECISION = 4.E-2,
          MAILLE = 'M5',  NOEUD = 'N7',  NOM_CMP = 'FLUZ',  VALE = -0.7071068),
         _F(  CHAM_GD = FLUX45,  PRECISION = 4.E-2,
           MAILLE = 'M6',  NOEUD = 'N8',  NOM_CMP = 'FLUZ',  VALE = -0.7071068),
         _F(  CHAM_GD = FLUX45,  PRECISION = 4.E-2,
           MAILLE = 'M8',  NOEUD = 'N9',  NOM_CMP = 'FLUZ',  VALE = -0.7071068),
         _F(  CHAM_GD = FLUX45,  PRECISION = 4.E-2,
           MAILLE = 'M1',  NOEUD = 'N4',  NOM_CMP = 'FLUZ',  VALE = -0.3535534),
         _F(  CHAM_GD = FLUX45,  PRECISION = 4.E-2,
           MAILLE = 'M4',  NOEUD = 'N6',  NOM_CMP = 'FLUZ',  VALE = -0.3535534),
         _F(  CHAM_GD = FLUX135,  PRECISION = 4.E-2,
           MAILLE = 'M5',  NOEUD = 'N7',  NOM_CMP = 'FLUX',  VALE = 1.4142136),
         _F(  CHAM_GD = FLUX135,  PRECISION = 4.E-2,
           MAILLE = 'M6',  NOEUD = 'N8',  NOM_CMP = 'FLUX',  VALE = 1.4142136),
         _F(  CHAM_GD = FLUX135,  PRECISION = 4.E-2,
           MAILLE = 'M8',  NOEUD = 'N9',  NOM_CMP = 'FLUX',  VALE = 1.4142136),
         _F(  CHAM_GD = FLUX135,  PRECISION = 4.E-2,
           MAILLE = 'M1',  NOEUD = 'N4',  NOM_CMP = 'FLUX',  VALE = 0.7071068),
         _F(  CHAM_GD = FLUX135,  PRECISION = 4.E-2,
           MAILLE = 'M4',  NOEUD = 'N6',  NOM_CMP = 'FLUX',  VALE = 0.7071068),

           _F(  CHAM_GD = FLUX135,  CRITERE = 'ABSOLU',  PRECISION = 4.E-2,
             MAILLE = 'M5',  NOEUD = 'N7',  NOM_CMP = 'FLUY',  VALE = 0.),
           _F(  CHAM_GD = FLUX135,  CRITERE = 'ABSOLU',  PRECISION = 4.E-2,
             MAILLE = 'M6',  NOEUD = 'N8',  NOM_CMP = 'FLUY',  VALE = 0.),
           _F(  CHAM_GD = FLUX135,  CRITERE = 'ABSOLU',  PRECISION = 4.E-2,
             MAILLE = 'M8',  NOEUD = 'N9',  NOM_CMP = 'FLUY',  VALE = 0.),
           _F(  CHAM_GD = FLUX135,  CRITERE = 'ABSOLU',  PRECISION = 4.E-2,
             MAILLE = 'M1',  NOEUD = 'N4',  NOM_CMP = 'FLUY',  VALE = 0.),
           _F(  CHAM_GD = FLUX135,  CRITERE = 'ABSOLU',  PRECISION = 4.E-2,
             MAILLE = 'M4',  NOEUD = 'N6',  NOM_CMP = 'FLUY',  VALE = 0.),

         _F(  CHAM_GD = FLUX135,  PRECISION = 4.E-2,
           MAILLE = 'M5',  NOEUD = 'N7',  NOM_CMP = 'FLUZ',  VALE = -0.7071068),
         _F(  CHAM_GD = FLUX135,  PRECISION = 4.E-2,
           MAILLE = 'M6',  NOEUD = 'N8',  NOM_CMP = 'FLUZ',  VALE = -0.7071068),
         _F(  CHAM_GD = FLUX135,  PRECISION = 4.E-2,
           MAILLE = 'M8',  NOEUD = 'N9',  NOM_CMP = 'FLUZ',  VALE = -0.7071068),
         _F(  CHAM_GD = FLUX135,  PRECISION = 4.E-2,
           MAILLE = 'M1',  NOEUD = 'N4',  NOM_CMP = 'FLUZ',  VALE = -0.3535534),
         _F(  CHAM_GD = FLUX135,  PRECISION = 4.E-2,
           MAILLE = 'M4',  NOEUD = 'N6',  NOM_CMP = 'FLUZ',  VALE = -0.3535534),

           _F(  CHAM_GD = FLUXRZ,  CRITERE = 'ABSOLU',
             MAILLE = 'M5',  NOEUD = 'N7',  NOM_CMP = 'FLUX',  VALE = 0.),
           _F(  CHAM_GD = FLUXRZ,  CRITERE = 'ABSOLU',
             MAILLE = 'M6',  NOEUD = 'N8',  NOM_CMP = 'FLUX',  VALE = 0.),
           _F(  CHAM_GD = FLUXRZ,  CRITERE = 'ABSOLU',
             MAILLE = 'M8',  NOEUD = 'N9',  NOM_CMP = 'FLUX',  VALE = 0.),
           _F(  CHAM_GD = FLUXRZ,  CRITERE = 'ABSOLU',
             MAILLE = 'M1',  NOEUD = 'N4',  NOM_CMP = 'FLUX',  VALE = 0.),
           _F(  CHAM_GD = FLUXRZ,  CRITERE = 'ABSOLU',
             MAILLE = 'M4',  NOEUD = 'N6',  NOM_CMP = 'FLUX',  VALE = 0.),

           _F(  CHAM_GD = FLUXRZ,  CRITERE = 'ABSOLU',
             MAILLE = 'M5',  NOEUD = 'N7',  NOM_CMP = 'FLUY',  VALE = 0.),
           _F(  CHAM_GD = FLUXRZ,  CRITERE = 'ABSOLU',
             MAILLE = 'M6',  NOEUD = 'N8',  NOM_CMP = 'FLUY',  VALE = 0.),
           _F(  CHAM_GD = FLUXRZ,  CRITERE = 'ABSOLU',
             MAILLE = 'M8',  NOEUD = 'N9',  NOM_CMP = 'FLUY',  VALE = 0.),
           _F(  CHAM_GD = FLUXRZ,  CRITERE = 'ABSOLU',
             MAILLE = 'M1',  NOEUD = 'N4',  NOM_CMP = 'FLUY',  VALE = 0.),
           _F(  CHAM_GD = FLUXRZ,  CRITERE = 'ABSOLU',
             MAILLE = 'M4',  NOEUD = 'N6',  NOM_CMP = 'FLUY',  VALE = 0.),

         _F(  CHAM_GD = FLUXRZ,  PRECISION = 4.E-2,
           MAILLE = 'M5',  NOEUD = 'N7',  NOM_CMP = 'FLUZ',  VALE = -1.4142136),
         _F(  CHAM_GD = FLUXRZ,  PRECISION = 4.E-2,
           MAILLE = 'M6',  NOEUD = 'N8',  NOM_CMP = 'FLUZ',  VALE = -1.4142136),
         _F(  CHAM_GD = FLUXRZ,  PRECISION = 4.E-2,
           MAILLE = 'M8',  NOEUD = 'N9',  NOM_CMP = 'FLUZ',  VALE = -1.4142136),
         _F(  CHAM_GD = FLUXRZ,  PRECISION = 4.E-2,
           MAILLE = 'M1',  NOEUD = 'N4',  NOM_CMP = 'FLUZ',  VALE = -0.7071068),
         _F(  CHAM_GD = FLUXRZ,  PRECISION = 4.E-2,
           MAILLE = 'M4',  NOEUD = 'N6',  NOM_CMP = 'FLUZ',  VALE = -0.7071068),

         _F(  CHAM_GD = FLUXTH,  PRECISION = 4.E-2,
           MAILLE = 'M5',  NOEUD = 'N7',  NOM_CMP = 'FLUX',  VALE = -2.8284272),
         _F(  CHAM_GD = FLUXTH,  PRECISION = 4.E-2,
           MAILLE = 'M6',  NOEUD = 'N8',  NOM_CMP = 'FLUX',  VALE = -2.8284272),
         _F(  CHAM_GD = FLUXTH,  PRECISION = 4.E-2,
           MAILLE = 'M8',  NOEUD = 'N9',  NOM_CMP = 'FLUX',  VALE = -2.8284272),
         _F(  CHAM_GD = FLUXTH,  PRECISION = 4.E-2,
           MAILLE = 'M1',  NOEUD = 'N4',  NOM_CMP = 'FLUX',  VALE = -1.4142136),
         _F(  CHAM_GD = FLUXTH,  PRECISION = 4.E-2,
           MAILLE = 'M4',  NOEUD = 'N6',  NOM_CMP = 'FLUX',  VALE = -1.4142136),

           _F(  CHAM_GD = FLUXTH,  CRITERE = 'ABSOLU',  PRECISION = 4.E-2,
             MAILLE = 'M5',  NOEUD = 'N7',  NOM_CMP = 'FLUY',  VALE = 0.),
           _F(  CHAM_GD = FLUXTH,  CRITERE = 'ABSOLU',  PRECISION = 4.E-2,
             MAILLE = 'M6',  NOEUD = 'N8',  NOM_CMP = 'FLUY',  VALE = 0.),
           _F(  CHAM_GD = FLUXTH,  CRITERE = 'ABSOLU',  PRECISION = 4.E-2,
             MAILLE = 'M8',  NOEUD = 'N9',  NOM_CMP = 'FLUY',  VALE = 0.),
           _F(  CHAM_GD = FLUXTH,  CRITERE = 'ABSOLU',  PRECISION = 4.E-2,
             MAILLE = 'M1',  NOEUD = 'N4',  NOM_CMP = 'FLUY',  VALE = 0.),
           _F(  CHAM_GD = FLUXTH,  CRITERE = 'ABSOLU',  PRECISION = 4.E-2,
             MAILLE = 'M4',  NOEUD = 'N6',  NOM_CMP = 'FLUY',  VALE = 0.),

           _F(  CHAM_GD = FLUXTH,  CRITERE = 'ABSOLU',
             MAILLE = 'M5',  NOEUD = 'N7',  NOM_CMP = 'FLUZ',  VALE = 0.),
           _F(  CHAM_GD = FLUXTH,  CRITERE = 'ABSOLU',
             MAILLE = 'M6',  NOEUD = 'N8',  NOM_CMP = 'FLUZ',  VALE = 0.),
           _F(  CHAM_GD = FLUXTH,  CRITERE = 'ABSOLU',
             MAILLE = 'M8',  NOEUD = 'N9',  NOM_CMP = 'FLUZ',  VALE = 0.),
           _F(  CHAM_GD = FLUXTH,  CRITERE = 'ABSOLU',
             MAILLE = 'M1',  NOEUD = 'N4',  NOM_CMP = 'FLUZ',  VALE = 0.),
           _F(  CHAM_GD = FLUXTH,  CRITERE = 'ABSOLU',
             MAILLE = 'M4',  NOEUD = 'N6',  NOM_CMP = 'FLUZ',  VALE = 0.))
           )

FIN( )
#
