# MODIF  DATE 17/07/2007   AUTEUR PELLET J.PELLET 
# TITRE PB 3D STATIONNAIRE AVEC RAYONNEMENT - HEXA20 SOLVEUR: MULT_FRONT
#            CONFIGURATION MANAGEMENT OF EDF VERSION
# ======================================================================
# COPYRIGHT (C) 1991 - 2001  EDF R&D                  WWW.CODE-ASTER.ORG
# THIS PROGRAM IS FREE SOFTWARE; YOU CAN REDISTRIBUTE IT AND/OR MODIFY
# IT UNDER THE TERMS OF THE GNU GENERAL PUBLIC LICENSE AS PUBLISHED BY
# THE FREE SOFTWARE FOUNDATION; EITHER VERSION 2 OF THE LICENSE, OR
# (AT YOUR OPTION) ANY LATER VERSION.
#
# THIS PROGRAM IS DISTRIBUTED IN THE HOPE THAT IT WILL BE USEFUL, BUT
# WITHOUT ANY WARRANTY; WITHOUT EVEN THE IMPLIED WARRANTY OF
# MERCHANTABILITY OR FITNESS FOR A PARTICULAR PURPOSE. SEE THE GNU
# GENERAL PUBLIC LICENSE FOR MORE DETAILS.
#
# YOU SHOULD HAVE RECEIVED A COPY OF THE GNU GENERAL PUBLIC LICENSE
# ALONG WITH THIS PROGRAM; IF NOT, WRITE TO EDF R&D CODE_ASTER,
#    1 AVENUE DU GENERAL DE GAULLE, 92141 CLAMART CEDEX, FRANCE.
# ======================================================================

DEBUT(CODE=_F(NOM='TPNA01C', NIV_PUB_WEB='INTERNET'), DEBUG=_F(SDVERI='NON'))

PRE_IDEAS( )

T20=DEFI_FONCTION(     NOM_RESU='TEMP',  NOM_PARA='INST',
                            VALE=(    0.0,  20.0,
                                   1200.0,  20.0, )
                        )

HE=DEFI_FONCTION(     NOM_RESU='H',  NOM_PARA='INST',
                            VALE=(    0.0,  142.0,
                                   1200.0,  142.0, )
                        )

CONDUC=DEFI_FONCTION(    NOM_PARA='TEMP',  NOM_RESU='LAMBDA',
                            VALE=(    0.0,    40.0,
                                   1200.0,    40.0, ),
               PROL_DROITE='LINEAIRE',    PROL_GAUCHE='LINEAIRE' )

ENTHAL=DEFI_FONCTION(    NOM_PARA='TEMP',  NOM_RESU='CP',
                            VALE=(    0.0,      0.0,
                                   1200.0,      1200.0, ),
               PROL_DROITE='LINEAIRE',    PROL_GAUCHE='LINEAIRE' )

RAYO=DEFI_FONCTION(    NOM_PARA='TEMP',
              VALE=( 0.0,   +12093.210046,
                     5.0,   +12078.807291,
                     10.0,  +12063.606525,
                     15.0,  +12047.578803,
                     20.0,  +12030.694661,
                     25.0,  +12012.924123,
                     30.0,  +11994.236696,
                     35.0,  +11974.601370,
                     40.0,  +11953.986620,
                     45.0,  +11932.360406,
                     50.0,  +11909.690172,
                     55.0,  +11885.942847,
                     60.0,  +11861.084841,
                     65.0,  +11835.082053,
                     70.0,  +11807.899864,
                     75.0,  +11779.503138,
                     80.0,  +11749.856225,
                     85.0,  +11718.922960,
                     90.0,  +11686.666660,
                     95.0,  +11653.050129,
                     100.0,  +11618.035652,
# ... 79 like lines cut
                     500.0,  0.0,               ),
         PROL_DROITE='LINEAIRE',   PROL_GAUCHE='LINEAIRE'
      )

MATER=DEFI_MATERIAU( THER_NL=_F(  LAMBDA = CONDUC,
                                  BETA = ENTHAL) )

MAIL=LIRE_MAILLAGE( )

CHMAT=AFFE_MATERIAU(  MAILLAGE=MAIL,
                AFFE=_F(  TOUT = 'OUI', MATER = MATER) )

MOTH=AFFE_MODELE(  MAILLAGE=MAIL,
                      AFFE=_F( TOUT = 'OUI', MODELISATION = '3D',
                                      PHENOMENE = 'THERMIQUE'))

CHAVI=CREA_CHAMP( OPERATION='AFFE', TYPE_CHAM='NOEU_DEPL_R',
MAILLAGE=MAIL,
   AFFE=_F(  TOUT = 'OUI', NOM_CMP = ('DX', 'DY', 'DZ',),
                        VALE = ( 0.,   0.,   0., )))

CHTH=AFFE_CHAR_THER_F(MODELE=MOTH,
           ECHANGE=_F( GROUP_MA = 'FACE_EXT',  COEF_H = HE, TEMP_EXT = T20),
           FLUX_NL=_F( GROUP_MA = 'FACE_INT',  FLUN = RAYO),
        CONVECTION=_F( VITESSE = CHAVI)        )

TEMPE=THER_NON_LINE_MO(         MODELE=MOTH,
                            CHAM_MATER=CHMAT,
                                 EXCIT=_F(  CHARGE = CHTH),
                  SOLVEUR=_F(  METHODE = 'MULT_FRONT'),
                           CONVERGENCE=_F(  CRIT_TEMP_RELA = 1.E-3,
                                         CRIT_ENTH_RELA = 1.E-2,
                                         ITER_GLOB_MAXI = 10) )

TEMPE=CALC_ELEM(reuse=TEMPE,RESULTAT=TEMPE,

                OPTION='FLUX_ELNO_TEMP',
                NUME_ORDRE=0
                );


# VALEURS DE REFERENCE: VERSION  3.06.09 DU CODE_ASTER


TEST_RESU(RESU=(

   _F( RESULTAT = TEMPE, NUME_ORDRE=0, NOM_CHAM='TEMP',
   NOEUD = 'N106', NOM_CMP = 'TEMP', VALE = 105.55,  PRECISION = 1.E-2),
   _F( RESULTAT = TEMPE, NUME_ORDRE=0, NOM_CHAM='TEMP',
   NOEUD = 'N105', NOM_CMP = 'TEMP', VALE = 99.21,  PRECISION = 1.E-2),
   _F( RESULTAT = TEMPE, NUME_ORDRE=0, NOM_CHAM='TEMP',
   NOEUD = 'N115', NOM_CMP = 'TEMP', VALE = 93.30,  PRECISION = 1.E-2),
   _F( RESULTAT = TEMPE, NUME_ORDRE=0, NOM_CHAM='TEMP',
   NOEUD = 'N125', NOM_CMP = 'TEMP', VALE = 87.76,  PRECISION = 1.E-2),
   _F( RESULTAT = TEMPE, NUME_ORDRE=0, NOM_CHAM='TEMP',
   NOEUD = 'N123', NOM_CMP = 'TEMP', VALE = 82.56,  PRECISION = 1.E-2))
    )

#

TEST_RESU(RESU=(

   _F( RESULTAT = TEMPE, NUME_ORDRE=0, NOM_CHAM='FLUX_ELNO_TEMP',
   MAILLE = 'M16', NOEUD = 'N123', NOM_CMP = 'FLUX', VALE = 8822.98,
   PRECISION = 2.E-2),
   _F( RESULTAT = TEMPE, NUME_ORDRE=0, NOM_CHAM='FLUX_ELNO_TEMP',
   MAILLE = 'M16', NOEUD = 'N123', NOM_CMP = 'FLUY', VALE = 0.0,
   CRITERE = 'ABSOLU', PRECISION = 1.E0),
   _F( RESULTAT = TEMPE, NUME_ORDRE=0, NOM_CHAM='FLUX_ELNO_TEMP',
   MAILLE = 'M16', NOEUD = 'N123', NOM_CMP = 'FLUZ', VALE = 0.0,
   CRITERE = 'ABSOLU', PRECISION = 2.E1),
   _F( RESULTAT = TEMPE, NUME_ORDRE=0, NOM_CHAM='FLUX_ELNO_TEMP',
   MAILLE = 'M16', NOEUD = 'N119', NOM_CMP = 'FLUX', VALE = 8822.98,
   PRECISION = 2.E-2),
   _F( RESULTAT = TEMPE, NUME_ORDRE=0, NOM_CHAM='FLUX_ELNO_TEMP',
   MAILLE = 'M16', NOEUD = 'N119', NOM_CMP = 'FLUY', VALE = 0.0,
   CRITERE = 'ABSOLU', PRECISION = 1.E0),
   _F( RESULTAT = TEMPE, NUME_ORDRE=0, NOM_CHAM='FLUX_ELNO_TEMP',
   MAILLE = 'M16', NOEUD = 'N119', NOM_CMP = 'FLUZ', VALE = 0.0,
   CRITERE = 'ABSOLU', PRECISION = 2.E1),
   _F( RESULTAT = TEMPE, NUME_ORDRE=0, NOM_CHAM='FLUX_ELNO_TEMP',
   MAILLE = 'M17', NOEUD = 'N106',  NOM_CMP = 'FLUX',VALE = 11577.49,
   PRECISION = 2.E-2),
   _F( RESULTAT = TEMPE, NUME_ORDRE=0, NOM_CHAM='FLUX_ELNO_TEMP',
   MAILLE = 'M17', NOEUD = 'N106', NOM_CMP = 'FLUY', VALE = 0.0,
   CRITERE = 'ABSOLU', PRECISION = 1.E0),
   _F( RESULTAT = TEMPE, NUME_ORDRE=0, NOM_CHAM='FLUX_ELNO_TEMP',
   MAILLE = 'M17', NOEUD = 'N106', NOM_CMP = 'FLUZ', VALE = 0.0,
   CRITERE = 'ABSOLU', PRECISION = 2.E1),
   _F( RESULTAT = TEMPE, NUME_ORDRE=0, NOM_CHAM='FLUX_ELNO_TEMP',
   MAILLE = 'M17', NOEUD = 'N103', NOM_CMP = 'FLUX', VALE = 11577.49,
   PRECISION = 2.E-2),
   _F( RESULTAT = TEMPE, NUME_ORDRE=0, NOM_CHAM='FLUX_ELNO_TEMP',
   MAILLE = 'M17', NOEUD = 'N103', NOM_CMP = 'FLUY', VALE = 0.0,
   CRITERE = 'ABSOLU', PRECISION = 1.E0),
   _F( RESULTAT = TEMPE, NUME_ORDRE=0, NOM_CHAM='FLUX_ELNO_TEMP',
   MAILLE = 'M17', NOEUD = 'N103', NOM_CMP = 'FLUZ', VALE = 0.0,
   CRITERE = 'ABSOLU', PRECISION = 2.E1))
          )

FIN()
#
