# MODIF  DATE 30/07/2012   AUTEUR LEFEBVRE J-P.LEFEBVRE 
# TITRE PB 3D STATIONNAIRE AVEC RAYONNEMENT - HEXA20
# tpna01b.para = tps_job 60 mem_job 512Mo ncpus 1 liste_test R
#            CONFIGURATION MANAGEMENT OF EDF VERSION
# ======================================================================
# COPYRIGHT (C) 1991 - 2012  EDF R&D                  WWW.CODE-ASTER.ORG
# THIS PROGRAM IS FREE SOFTWARE; YOU CAN REDISTRIBUTE IT AND/OR MODIFY
# IT UNDER THE TERMS OF THE GNU GENERAL PUBLIC LICENSE AS PUBLISHED BY
# THE FREE SOFTWARE FOUNDATION; EITHER VERSION 2 OF THE LICENSE, OR
# (AT YOUR OPTION) ANY LATER VERSION.
#
# THIS PROGRAM IS DISTRIBUTED IN THE HOPE THAT IT WILL BE USEFUL, BUT
# WITHOUT ANY WARRANTY; WITHOUT EVEN THE IMPLIED WARRANTY OF
# MERCHANTABILITY OR FITNESS FOR A PARTICULAR PURPOSE. SEE THE GNU
# GENERAL PUBLIC LICENSE FOR MORE DETAILS.
#
# YOU SHOULD HAVE RECEIVED A COPY OF THE GNU GENERAL PUBLIC LICENSE
# ALONG WITH THIS PROGRAM; IF NOT, WRITE TO EDF R&D CODE_ASTER,
#    1 AVENUE DU GENERAL DE GAULLE, 92141 CLAMART CEDEX, FRANCE.
# ======================================================================

DEBUT(CODE=_F(NOM='TPNA01B',NIV_PUB_WEB='INTERNET',), DEBUG=_F(SDVERI='OUI'),)

MAIL=LIRE_MAILLAGE(FORMAT='MED',);

T20=DEFI_FONCTION(NOM_PARA='INST',NOM_RESU='TEMP',VALE=(0.0,20.0,
                        1200.0,20.0,
                        ),);

HE=DEFI_FONCTION(NOM_PARA='INST',NOM_RESU='H',VALE=(0.0,142.0,
                       1200.0,142.0,
                       ),);

CONDUC=DEFI_FONCTION(NOM_PARA='TEMP',NOM_RESU='LAMBDA',VALE=(0.0,40.0,
                           1200.0,40.0,
                           ),PROL_DROITE='LINEAIRE',PROL_GAUCHE='LINEAIRE',);

ENTHAL=DEFI_FONCTION(NOM_PARA='TEMP',NOM_RESU='CP',VALE=(0.0,0.0,
                           1200.0,1200.0,
                           ),PROL_DROITE='LINEAIRE',PROL_GAUCHE='LINEAIRE',);

SIGM=DEFI_FONCTION(NOM_PARA='INST',VALE=(0.0,5.73E-8,
                         1.0,5.73E-8,
                         ),);

EPSI=DEFI_FONCTION(NOM_PARA='INST',VALE=(0.0,0.15,
                         1.0,0.15,
                         ),);

TEXT=DEFI_FONCTION(NOM_PARA='INST',VALE=(0.0,500.,
                         1.0,500.,
                         ),);

RAYO=DEFI_FONCTION(NOM_PARA='TEMP',VALE=(5.,6039.403646,
                         10.,6031.803263,
                         15.,6023.789402,
                         20.,6015.347331,
                         25.,6006.462062,
                         30.,5997.118348,
                         35.,5987.300685,
                         40.,5976.99331,
                         45.,5966.180203,
                         50.,5954.845086,
                         55.,5942.971424,
                         60.,5930.542421,
                         65.,5917.541027,
                         70.,5903.949932,
                         75.,5889.751569,
                         80.,5874.928113,
                         85.,5859.46148,
                         90.,5843.33333,
                         95.,5826.525065,
                         100.,5809.017826,
                         105.,5790.792501,
# ... 79 like lines cut
                         ),PROL_DROITE='LINEAIRE',PROL_GAUCHE='LINEAIRE',);

MATER=DEFI_MATERIAU(THER_NL=_F(LAMBDA=CONDUC,
                               BETA=ENTHAL,),);

CHMAT=AFFE_MATERIAU(MAILLAGE=MAIL,
                    AFFE=_F(TOUT='OUI',
                            MATER=MATER,),);

MOTH=AFFE_MODELE(MAILLAGE=MAIL,
                 AFFE=_F(TOUT='OUI',
                         PHENOMENE='THERMIQUE',
                         MODELISATION='3D',),);

CHTH=AFFE_CHAR_THER_F(MODELE=MOTH,
                      FLUX_NL=_F(GROUP_MA='fint_rot',
                                 FLUN=RAYO,),
                      ECHANGE=_F(GROUP_MA='fext_rot',
                                 COEF_H=HE,
                                 TEMP_EXT=T20,),);

CHTHB=AFFE_CHAR_THER(MODELE=MOTH,
                     RAYONNEMENT=_F(GROUP_MA='fint_rot',
                                    SIGMA=5.73E-8,
                                    EPSILON=0.15,
                                    TEMP_EXT=500.,),);

CHTHC=AFFE_CHAR_THER_F(MODELE=MOTH,
                       RAYONNEMENT=_F(GROUP_MA='fint_rot',
                                      SIGMA=SIGM,
                                      EPSILON=EPSI,
                                      TEMP_EXT=TEXT,),);

TEMPE=THER_NON_LINE(MODELE=MOTH,
                    CHAM_MATER=CHMAT,
                    EXCIT=(_F(CHARGE=CHTH,),
                           _F(CHARGE=CHTHB,),
                           _F(CHARGE=CHTHC,),),
                    ETAT_INIT=_F(STATIONNAIRE='OUI',),
                    NEWTON=_F(REAC_ITER=1,),);

TEMPE=CALC_CHAMP(reuse =TEMPE,
                RESULTAT=TEMPE,
                INST=0.,
                 THERMIQUE=('FLUX_ELNO'),);

resu=MACR_LIGN_COUPE(RESULTAT=TEMPE,
                     NOM_CHAM='TEMP',
                     LIGN_COUPE=_F(TYPE='SEGMENT', DISTANCE_MAX=0.001,
                                   NB_POINTS=5,
                                   COOR_ORIG=(0.3,0.,0.,),
                                   COOR_EXTR=(0.391,0.,0.,),),);

resu2=MACR_LIGN_COUPE(RESULTAT=TEMPE,
                      NOM_CHAM='FLUX_ELNO',
                      LIGN_COUPE=_F(TYPE='SEGMENT',DISTANCE_MAX=0.001,
                                    NB_POINTS=5,
                                    COOR_ORIG=(0.3,0.,0.,),
                                    COOR_EXTR=(0.391,0.,0.,),),);

# TEST DE LA TEMPERATURE

TEST_TABLE(TABLE=resu,
           FILTRE=_F(NOM_PARA='ABSC_CURV',
                     VALE=0.0,),
           NOM_PARA='TEMP',
           VALE=105.55,
           REFERENCE='ANALYTIQUE',);

TEST_TABLE(TABLE=resu,
           FILTRE=_F(NOM_PARA='ABSC_CURV',
                     VALE=0.02275,),
           NOM_PARA='TEMP',
           VALE=99.21,
           REFERENCE='ANALYTIQUE',);

TEST_TABLE(TABLE=resu,
           FILTRE=_F(NOM_PARA='ABSC_CURV',
                     VALE=0.0455,),
           NOM_PARA='TEMP',
           VALE=93.3,
           REFERENCE='ANALYTIQUE',);

TEST_TABLE(TABLE=resu,
           FILTRE=_F(NOM_PARA='ABSC_CURV',
                     VALE=0.06825,),
           NOM_PARA='TEMP',
           VALE=87.67,
           PRECISION=0.002,
           REFERENCE='ANALYTIQUE',);

TEST_TABLE(TABLE=resu,
           FILTRE=_F(NOM_PARA='ABSC_CURV',
                     VALE=0.091,),
           NOM_PARA='TEMP',
           VALE=82.56,
           REFERENCE='ANALYTIQUE',);

# TEST DU FLUX

TEST_TABLE(TABLE=resu2,
           FILTRE=_F(NOM_PARA='ABSC_CURV',
                     VALE=0.0,),
           NOM_PARA='FLUX',
           VALE=11120.60,
           REFERENCE='NON_REGRESSION',);

TEST_TABLE(TABLE=resu2,
           FILTRE=_F(NOM_PARA='ABSC_CURV',
                     VALE=0.091,),
           NOM_PARA='FLUX',
           VALE=9121.31,
           REFERENCE='NON_REGRESSION',);

FIN();
