# TITRE TUBE GENERATEUR DE CHALEUR AVEC CONDUCTIVITE VARIABLE
# ======================================================================
# COPYRIGHT (C) 1991 - 2012  EDF R&D                  WWW.CODE-ASTER.ORG
# THIS PROGRAM IS FREE SOFTWARE; YOU CAN REDISTRIBUTE IT AND/OR MODIFY
# IT UNDER THE TERMS OF THE GNU GENERAL PUBLIC LICENSE AS PUBLISHED BY
# THE FREE SOFTWARE FOUNDATION; EITHER VERSION 2 OF THE LICENSE, OR   
# (AT YOUR OPTION) ANY LATER VERSION.                                 
#
# THIS PROGRAM IS DISTRIBUTED IN THE HOPE THAT IT WILL BE USEFUL, BUT 
# WITHOUT ANY WARRANTY; WITHOUT EVEN THE IMPLIED WARRANTY OF          
# MERCHANTABILITY OR FITNESS FOR A PARTICULAR PURPOSE. SEE THE GNU    
# GENERAL PUBLIC LICENSE FOR MORE DETAILS.                            
#
# YOU SHOULD HAVE RECEIVED A COPY OF THE GNU GENERAL PUBLIC LICENSE   
# ALONG WITH THIS PROGRAM; IF NOT, WRITE TO EDF R&D CODE_ASTER,       
#    1 AVENUE DU GENERAL DE GAULLE, 92141 CLAMART CEDEX, FRANCE.      
# ======================================================================
#
# MAILLES : QUAD9
#

DEBUT(  CODE=_F(NIV_PUB_WEB='INTERNET') )

#
# LECTURE DU MAILLAGE ----------------------------------------------
#

MAIL=LIRE_MAILLAGE(FORMAT='MED', )

#
# DEFINITION DU MATERIAU ------------------------
#

CONDUC=DEFI_FONCTION(   NOM_PARA='TEMP',  NOM_RESU='LAMBDA',
                                VALE=(    0.0,      21.461,
                                        100.0,      44.861,),
                          PROL_DROITE='LINEAIRE',
                         PROL_GAUCHE='LINEAIRE'
                         )

ENTHAL=DEFI_FONCTION(   NOM_PARA='TEMP',  NOM_RESU='BETA',
                                VALE=(    0.0,      0.0,
                                        100.0,    100.0, ),
                          PROL_DROITE='LINEAIRE',
                         PROL_GAUCHE='LINEAIRE'
                         )

MATER=DEFI_MATERIAU(   THER_NL=_F(  LAMBDA = CONDUC,
                                      BETA = ENTHAL)
                         )

#
# AFFECTATIONS: MATERIAU, MODELE, CHARGEMENT ----------------------
#

CHMAT=AFFE_MATERIAU(   MAILLAGE=MAIL,
                                AFFE=_F(  TOUT = 'OUI',  MATER = MATER)
                         )

MOTH=AFFE_MODELE(     MAILLAGE=MAIL,
                                AFFE=_F(  TOUT = 'OUI',
                                       MODELISATION = 'AXIS',
                                       PHENOMENE = 'THERMIQUE')
                         )

CHARGE=AFFE_CHAR_THER(   MODELE=MOTH,
                          TEMP_IMPO=_F( GROUP_NO = 'NOE_IMP',  TEMP = -17.78),
                             SOURCE=_F( TOUT = 'OUI',         SOUR = 1.035E7)
                          )

#
# RESOLUTION ------------------------------------------------------
#

TEMPE=THER_NON_LINE(        MODELE=MOTH,
                             ETAT_INIT=_F(  STATIONNAIRE = 'OUI'),
                            CHAM_MATER=CHMAT,
                                 EXCIT=_F(  CHARGE = CHARGE)
                        )

T_RES=CREA_CHAMP(  OPERATION='EXTR', TYPE_CHAM='NOEU_TEMP_R',
NOM_CHAM='TEMP', RESULTAT=TEMPE, INST=0. )

#
# ANALYSE DES RESULTATS -------------------------------------------
#

TEST_RESU(CHAM_NO=(_F(NOEUD='N11',
                      NOM_CMP='TEMP',
                      PRECISION=0.050000000000000003,
                      CHAM_GD=T_RES,
                      VALE_CALC=-4.833074159,
                      VALE_REFE=-5.0,
                      REFERENCE='NON_DEFINI',),
                   _F(NOEUD='N21',
                      NOM_CMP='TEMP',
                      PRECISION=0.050000000000000003,
                      CHAM_GD=T_RES,
                      VALE_CALC=2.145680878,
                      VALE_REFE=2.2200000000000002,
                      REFERENCE='NON_DEFINI',),
                   _F(NOEUD='N31',
                      NOM_CMP='TEMP',
                      PRECISION=0.050000000000000003,
                      CHAM_GD=T_RES,
                      VALE_CALC=5.645933655,
                      VALE_REFE=5.5599999999999996,
                      REFERENCE='NON_DEFINI',),
                   _F(NOEUD='N41',
                      NOM_CMP='TEMP',
                      PRECISION=0.050000000000000003,
                      CHAM_GD=T_RES,
                      VALE_CALC=6.664310368,
                      VALE_REFE=6.6699999999999999,
                      REFERENCE='NON_DEFINI',),
                   _F(NOEUD='N51',
                      NOM_CMP='TEMP',
                      PRECISION=0.050000000000000003,
                      CHAM_GD=T_RES,
                      VALE_CALC=5.653886406,
                      VALE_REFE=5.5599999999999996,
                      REFERENCE='NON_DEFINI',),
                   _F(NOEUD='N61',
                      NOM_CMP='TEMP',
                      PRECISION=0.050000000000000003,
                      CHAM_GD=T_RES,
                      VALE_CALC=2.798406336,
                      VALE_REFE=2.7799999999999998,
                      REFERENCE='NON_DEFINI',),
                   _F(NOEUD='N71',
                      NOM_CMP='TEMP',
                      PRECISION=0.14000000000000001,
                      CHAM_GD=T_RES,
                      VALE_CALC=-1.899458631,
                      VALE_REFE=-1.6699999999999999,
                      REFERENCE='NON_DEFINI',),
                   _F(NOEUD='N81',
                      NOM_CMP='TEMP',
                      PRECISION=0.050000000000000003,
                      CHAM_GD=T_RES,
                      VALE_CALC=-8.614264886,
                      VALE_REFE=-8.8900000000000006,
                      REFERENCE='NON_DEFINI',),
                   _F(NOEUD='N1',
                      CRITERE='ABSOLU',
                      NOM_CMP='TEMP',
                      CHAM_GD=T_RES,
                      VALE_CALC=-17.780000000000001,),
                   _F(NOEUD='N11',
                      CRITERE='ABSOLU',
                      NOM_CMP='TEMP',
                      PRECISION=0.29999999999999999,
                      CHAM_GD=T_RES,
                      VALE_CALC=-4.833074159,
                      VALE_REFE=-5.0,
                      REFERENCE='NON_DEFINI',),
                   _F(NOEUD='N21',
                      CRITERE='ABSOLU',
                      NOM_CMP='TEMP',
                      PRECISION=0.29999999999999999,
                      CHAM_GD=T_RES,
                      VALE_CALC=2.145680878,
                      VALE_REFE=2.2200000000000002,
                      REFERENCE='NON_DEFINI',),
                   _F(NOEUD='N31',
                      CRITERE='ABSOLU',
                      NOM_CMP='TEMP',
                      PRECISION=0.29999999999999999,
                      CHAM_GD=T_RES,
                      VALE_CALC=5.645933655,
                      VALE_REFE=5.5599999999999996,
                      REFERENCE='NON_DEFINI',),
                   _F(NOEUD='N41',
                      CRITERE='ABSOLU',
                      NOM_CMP='TEMP',
                      PRECISION=0.29999999999999999,
                      CHAM_GD=T_RES,
                      VALE_CALC=6.664310368,
                      VALE_REFE=6.6699999999999999,
                      REFERENCE='NON_DEFINI',),
                   _F(NOEUD='N51',
                      CRITERE='ABSOLU',
                      NOM_CMP='TEMP',
                      PRECISION=0.29999999999999999,
                      CHAM_GD=T_RES,
                      VALE_CALC=5.653886406,
                      VALE_REFE=5.5599999999999996,
                      REFERENCE='NON_DEFINI',),
                   _F(NOEUD='N61',
                      CRITERE='ABSOLU',
                      NOM_CMP='TEMP',
                      PRECISION=0.29999999999999999,
                      CHAM_GD=T_RES,
                      VALE_CALC=2.798406336,
                      VALE_REFE=2.7799999999999998,
                      REFERENCE='NON_DEFINI',),
                   _F(NOEUD='N71',
                      CRITERE='ABSOLU',
                      NOM_CMP='TEMP',
                      PRECISION=0.29999999999999999,
                      CHAM_GD=T_RES,
                      VALE_CALC=-1.899458631,
                      VALE_REFE=-1.6699999999999999,
                      REFERENCE='NON_DEFINI',),
                   _F(NOEUD='N81',
                      CRITERE='ABSOLU',
                      NOM_CMP='TEMP',
                      PRECISION=0.29999999999999999,
                      CHAM_GD=T_RES,
                      VALE_CALC=-8.614264886,
                      VALE_REFE=-8.8900000000000006,
                      REFERENCE='NON_DEFINI',),
                   _F(NOEUD='N91',
                      CRITERE='ABSOLU',
                      NOM_CMP='TEMP',
                      CHAM_GD=T_RES,
                      VALE_CALC=-17.780000000000001,),
                   _F(NOEUD='N13',
                      NOM_CMP='TEMP',
                      PRECISION=0.050000000000000003,
                      CHAM_GD=T_RES,
                      VALE_CALC=-4.833073394,
                      VALE_REFE=-5.0,
                      REFERENCE='NON_DEFINI',),
                   _F(NOEUD='N23',
                      NOM_CMP='TEMP',
                      PRECISION=0.050000000000000003,
                      CHAM_GD=T_RES,
                      VALE_CALC=2.145680886,
                      VALE_REFE=2.2200000000000002,
                      REFERENCE='NON_DEFINI',),
                   _F(NOEUD='N33',
                      NOM_CMP='TEMP',
                      PRECISION=0.050000000000000003,
                      CHAM_GD=T_RES,
                      VALE_CALC=5.645933451,
                      VALE_REFE=5.5599999999999996,
                      REFERENCE='NON_DEFINI',),
                   _F(NOEUD='N43',
                      NOM_CMP='TEMP',
                      PRECISION=0.050000000000000003,
                      CHAM_GD=T_RES,
                      VALE_CALC=6.664310346,
                      VALE_REFE=6.6699999999999999,
                      REFERENCE='NON_DEFINI',),
                   _F(NOEUD='N53',
                      NOM_CMP='TEMP',
                      PRECISION=0.050000000000000003,
                      CHAM_GD=T_RES,
                      VALE_CALC=5.653886458,
                      VALE_REFE=5.5599999999999996,
                      REFERENCE='NON_DEFINI',),
                   _F(NOEUD='N63',
                      NOM_CMP='TEMP',
                      PRECISION=0.050000000000000003,
                      CHAM_GD=T_RES,
                      VALE_CALC=2.798406316,
                      VALE_REFE=2.7799999999999998,
                      REFERENCE='NON_DEFINI',),
                   _F(NOEUD='N73',
                      NOM_CMP='TEMP',
                      PRECISION=0.14000000000000001,
                      CHAM_GD=T_RES,
                      VALE_CALC=-1.899459096,
                      VALE_REFE=-1.6699999999999999,
                      REFERENCE='NON_DEFINI',),
                   _F(NOEUD='N83',
                      NOM_CMP='TEMP',
                      PRECISION=0.050000000000000003,
                      CHAM_GD=T_RES,
                      VALE_CALC=-8.614264301,
                      VALE_REFE=-8.8900000000000006,
                      REFERENCE='NON_DEFINI',),
                   _F(NOEUD='N3',
                      CRITERE='ABSOLU',
                      NOM_CMP='TEMP',
                      CHAM_GD=T_RES,
                      VALE_CALC=-17.780000000000001,),
                   _F(NOEUD='N13',
                      CRITERE='ABSOLU',
                      NOM_CMP='TEMP',
                      PRECISION=0.29999999999999999,
                      CHAM_GD=T_RES,
                      VALE_CALC=-4.833073394,
                      VALE_REFE=-5.0,
                      REFERENCE='NON_DEFINI',),
                   _F(NOEUD='N23',
                      CRITERE='ABSOLU',
                      NOM_CMP='TEMP',
                      PRECISION=0.29999999999999999,
                      CHAM_GD=T_RES,
                      VALE_CALC=2.145680886,
                      VALE_REFE=2.2200000000000002,
                      REFERENCE='NON_DEFINI',),
                   _F(NOEUD='N33',
                      CRITERE='ABSOLU',
                      NOM_CMP='TEMP',
                      PRECISION=0.29999999999999999,
                      CHAM_GD=T_RES,
                      VALE_CALC=5.645933451,
                      VALE_REFE=5.5599999999999996,
                      REFERENCE='NON_DEFINI',),
                   _F(NOEUD='N43',
                      CRITERE='ABSOLU',
                      NOM_CMP='TEMP',
                      PRECISION=0.29999999999999999,
                      CHAM_GD=T_RES,
                      VALE_CALC=6.664310346,
                      VALE_REFE=6.6699999999999999,
                      REFERENCE='NON_DEFINI',),
                   _F(NOEUD='N53',
                      CRITERE='ABSOLU',
                      NOM_CMP='TEMP',
                      PRECISION=0.29999999999999999,
                      CHAM_GD=T_RES,
                      VALE_CALC=5.653886458,
                      VALE_REFE=5.5599999999999996,
                      REFERENCE='NON_DEFINI',),
                   _F(NOEUD='N63',
                      CRITERE='ABSOLU',
                      NOM_CMP='TEMP',
                      PRECISION=0.29999999999999999,
                      CHAM_GD=T_RES,
                      VALE_CALC=2.798406316,
                      VALE_REFE=2.7799999999999998,
                      REFERENCE='NON_DEFINI',),
                   _F(NOEUD='N73',
                      CRITERE='ABSOLU',
                      NOM_CMP='TEMP',
                      PRECISION=0.29999999999999999,
                      CHAM_GD=T_RES,
                      VALE_CALC=-1.899459096,
                      VALE_REFE=-1.6699999999999999,
                      REFERENCE='NON_DEFINI',),
                   _F(NOEUD='N83',
                      CRITERE='ABSOLU',
                      NOM_CMP='TEMP',
                      PRECISION=0.29999999999999999,
                      CHAM_GD=T_RES,
                      VALE_CALC=-8.614264301,
                      VALE_REFE=-8.8900000000000006,
                      REFERENCE='NON_DEFINI',),
                   _F(NOEUD='N93',
                      CRITERE='ABSOLU',
                      NOM_CMP='TEMP',
                      CHAM_GD=T_RES,
                      VALE_CALC=-17.780000000000001,),
                   _F(NOEUD='N15',
                      NOM_CMP='TEMP',
                      PRECISION=0.050000000000000003,
                      CHAM_GD=T_RES,
                      VALE_CALC=-4.833072119,
                      VALE_REFE=-5.0,
                      REFERENCE='NON_DEFINI',),
                   _F(NOEUD='N25',
                      NOM_CMP='TEMP',
                      PRECISION=0.050000000000000003,
                      CHAM_GD=T_RES,
                      VALE_CALC=2.145680868,
                      VALE_REFE=2.2200000000000002,
                      REFERENCE='NON_DEFINI',),
                   _F(NOEUD='N35',
                      NOM_CMP='TEMP',
                      PRECISION=0.050000000000000003,
                      CHAM_GD=T_RES,
                      VALE_CALC=5.645933103,
                      VALE_REFE=5.5599999999999996,
                      REFERENCE='NON_DEFINI',),
                   _F(NOEUD='N45',
                      NOM_CMP='TEMP',
                      PRECISION=0.050000000000000003,
                      CHAM_GD=T_RES,
                      VALE_CALC=6.664310328,
                      VALE_REFE=6.6699999999999999,
                      REFERENCE='NON_DEFINI',),
                   _F(NOEUD='N55',
                      NOM_CMP='TEMP',
                      PRECISION=0.050000000000000003,
                      CHAM_GD=T_RES,
                      VALE_CALC=5.653886565,
                      VALE_REFE=5.5599999999999996,
                      REFERENCE='NON_DEFINI',),
                   _F(NOEUD='N65',
                      NOM_CMP='TEMP',
                      PRECISION=0.050000000000000003,
                      CHAM_GD=T_RES,
                      VALE_CALC=2.798406274,
                      VALE_REFE=2.7799999999999998,
                      REFERENCE='NON_DEFINI',),
                   _F(NOEUD='N75',
                      NOM_CMP='TEMP',
                      PRECISION=0.14000000000000001,
                      CHAM_GD=T_RES,
                      VALE_CALC=-1.899459952,
                      VALE_REFE=-1.6699999999999999,
                      REFERENCE='NON_DEFINI',),
                   _F(NOEUD='N85',
                      NOM_CMP='TEMP',
                      PRECISION=0.050000000000000003,
                      CHAM_GD=T_RES,
                      VALE_CALC=-8.614263301,
                      VALE_REFE=-8.8900000000000006,
                      REFERENCE='NON_DEFINI',),
                   _F(NOEUD='N5',
                      CRITERE='ABSOLU',
                      NOM_CMP='TEMP',
                      CHAM_GD=T_RES,
                      VALE_CALC=-17.780000000000001,),
                   _F(NOEUD='N15',
                      CRITERE='ABSOLU',
                      NOM_CMP='TEMP',
                      PRECISION=0.29999999999999999,
                      CHAM_GD=T_RES,
                      VALE_CALC=-4.833072119,
                      VALE_REFE=-5.0,
                      REFERENCE='NON_DEFINI',),
                   _F(NOEUD='N25',
                      CRITERE='ABSOLU',
                      NOM_CMP='TEMP',
                      PRECISION=0.29999999999999999,
                      CHAM_GD=T_RES,
                      VALE_CALC=2.145680868,
                      VALE_REFE=2.2200000000000002,
                      REFERENCE='NON_DEFINI',),
                   _F(NOEUD='N35',
                      CRITERE='ABSOLU',
                      NOM_CMP='TEMP',
                      PRECISION=0.29999999999999999,
                      CHAM_GD=T_RES,
                      VALE_CALC=5.645933103,
                      VALE_REFE=5.5599999999999996,
                      REFERENCE='NON_DEFINI',),
                   _F(NOEUD='N45',
                      CRITERE='ABSOLU',
                      NOM_CMP='TEMP',
                      PRECISION=0.29999999999999999,
                      CHAM_GD=T_RES,
                      VALE_CALC=6.664310328,
                      VALE_REFE=6.6699999999999999,
                      REFERENCE='NON_DEFINI',),
                   _F(NOEUD='N55',
                      CRITERE='ABSOLU',
                      NOM_CMP='TEMP',
                      PRECISION=0.29999999999999999,
                      CHAM_GD=T_RES,
                      VALE_CALC=5.653886565,
                      VALE_REFE=5.5599999999999996,
                      REFERENCE='NON_DEFINI',),
                   _F(NOEUD='N65',
                      CRITERE='ABSOLU',
                      NOM_CMP='TEMP',
                      PRECISION=0.29999999999999999,
                      CHAM_GD=T_RES,
                      VALE_CALC=2.798406274,
                      VALE_REFE=2.7799999999999998,
                      REFERENCE='NON_DEFINI',),
                   _F(NOEUD='N75',
                      CRITERE='ABSOLU',
                      NOM_CMP='TEMP',
                      PRECISION=0.29999999999999999,
                      CHAM_GD=T_RES,
                      VALE_CALC=-1.899459952,
                      VALE_REFE=-1.6699999999999999,
                      REFERENCE='NON_DEFINI',),
                   _F(NOEUD='N85',
                      CRITERE='ABSOLU',
                      NOM_CMP='TEMP',
                      PRECISION=0.29999999999999999,
                      CHAM_GD=T_RES,
                      VALE_CALC=-8.614263301,
                      VALE_REFE=-8.8900000000000006,
                      REFERENCE='NON_DEFINI',),
                   _F(NOEUD='N95',
                      CRITERE='ABSOLU',
                      NOM_CMP='TEMP',
                      CHAM_GD=T_RES,
                      VALE_CALC=-17.780000000000001,),
                   ),
          )

FIN()
#
#
#
#
#
#
#
