# MODIF  DATE 08/08/2002   AUTEUR CIBHHLV L.VIVAN 
# TITRE PB 2D AXISYMETRIQUE STATIONNAIRE AVEC RAYONNEMENT - QUAD8
#            CONFIGURATION MANAGEMENT OF EDF VERSION
# ======================================================================
# COPYRIGHT (C) 1991 - 2001  EDF R&D                  WWW.CODE-ASTER.ORG
# THIS PROGRAM IS FREE SOFTWARE; YOU CAN REDISTRIBUTE IT AND/OR MODIFY
# IT UNDER THE TERMS OF THE GNU GENERAL PUBLIC LICENSE AS PUBLISHED BY
# THE FREE SOFTWARE FOUNDATION; EITHER VERSION 2 OF THE LICENSE, OR   
# (AT YOUR OPTION) ANY LATER VERSION.                                 
#
# THIS PROGRAM IS DISTRIBUTED IN THE HOPE THAT IT WILL BE USEFUL, BUT 
# WITHOUT ANY WARRANTY; WITHOUT EVEN THE IMPLIED WARRANTY OF          
# MERCHANTABILITY OR FITNESS FOR A PARTICULAR PURPOSE. SEE THE GNU    
# GENERAL PUBLIC LICENSE FOR MORE DETAILS.                            
#
# YOU SHOULD HAVE RECEIVED A COPY OF THE GNU GENERAL PUBLIC LICENSE   
# ALONG WITH THIS PROGRAM; IF NOT, WRITE TO EDF R&D CODE_ASTER,       
#    1 AVENUE DU GENERAL DE GAULLE, 92141 CLAMART CEDEX, FRANCE.      
# ======================================================================

DEBUT( CODE=_F( NOM = 'TPNA01A',NIV_PUB_WEB='INTERNET')
       )

T20=DEFI_FONCTION(     NOM_RESU='TEMP',  NOM_PARA='INST',
                            VALE=(    0.0,  20.0,
                                   1200.0,  20.0, )
                        )

HE=DEFI_FONCTION(     NOM_RESU='H',  NOM_PARA='INST',
                            VALE=(    0.0,  142.0,
                                   1200.0,  142.0, )
                        )

CONDUC=DEFI_FONCTION(    NOM_PARA='TEMP',  NOM_RESU='LAMBDA',
                             VALE=(    0.0,    40.0,
                                    1200.0,    40.0, ),
               PROL_DROITE='LINEAIRE',    PROL_GAUCHE='LINEAIRE' )

ENTHAL=DEFI_FONCTION(    NOM_PARA='TEMP',  NOM_RESU='CP',
                             VALE=(    0.0,      0.0,
                                    1200.0,      1200.0, ),
               PROL_DROITE='LINEAIRE',    PROL_GAUCHE='LINEAIRE' )

RAYO=DEFI_FONCTION(    NOM_PARA='TEMP',
              VALE=(
  5.,     6039.403646,
 10.,     6031.803263,
 15.,     6023.789402,
 20.,     6015.347331,
 25.,     6006.462062,
 30.,     5997.118348,
 35.,     5987.300685,
 40.,     5976.99331,
 45.,     5966.180203,
 50.,     5954.845086,
 55.,     5942.971424,
 60.,     5930.542421,
 65.,     5917.541027,
 70.,     5903.949932,
 75.,     5889.751569,
 80.,     5874.928113,
 85.,     5859.46148,
 90.,     5843.33333,
 95.,     5826.525065,
100.,     5809.017826,
# ... 80 like lines cut
                   ),
         PROL_DROITE='LINEAIRE',   PROL_GAUCHE='LINEAIRE'
      )

MATER=DEFI_MATERIAU(   THER_NL=_F(  LAMBDA = CONDUC,
                                     BETA = ENTHAL) )

MAIL=LIRE_MAILLAGE( )

CHMAT=AFFE_MATERIAU(   MAILLAGE=MAIL,
                          AFFE=_F(  TOUT = 'OUI', MATER = MATER) )

MOTH=AFFE_MODELE(   MAILLAGE=MAIL,
                       AFFE=_F( TOUT = 'OUI', MODELISATION = 'AXIS',
                                        PHENOMENE = 'THERMIQUE'))

CHTH=AFFE_CHAR_THER_F(MODELE=MOTH,
           ECHANGE=_F( GROUP_MA = 'GRMA1',  COEF_H = HE, TEMP_EXT = T20),
           FLUX_NL=_F( GROUP_MA = 'GRMA2',  FLUN = RAYO)
         )

CHTHB=AFFE_CHAR_THER(MODELE=MOTH,
           RAYONNEMENT=_F( GROUP_MA = 'GRMA2',
                        SIGMA = 5.73E-8,
                        EPSILON = 0.3,
                        TEMP_EXT = 500.)
         )

TEMPE=THER_NON_LINE(          MODELE=MOTH,
                            TEMP_INIT=_F(  STATIONNAIRE = 'OUI'),
                           CHAM_MATER=CHMAT,EXCIT=(
                                _F(  CHARGE = CHTH),
                                      _F(  CHARGE = CHTHB)),
                               NEWTON=_F(  REAC_ITER = 1),
                               OPTION='FLUX_ELNO_TEMP',
                 TITRE=( ' CAS TEST &CODE','&RL COMMANDE &COMMANDE', )
                       )

IMPR_RESU ( RESU=_F(RESULTAT = TEMPE, TOUT_PARA='OUI'), )

#
T_0=CREA_CHAMP(  OPERATION='EXTR', TYPE_CHAM='NOEU_TEMP_R',
NOM_CHAM='TEMP', RESULTAT=TEMPE, INST=0. )

TEST_RESU(CHAM_NO=( 
 _F(  CHAM_GD = T_0,  NOEUD = 'N1',  NOM_CMP = 'TEMP', VALE = 105.55,  PRECISION = 1.E-2),
 _F(  CHAM_GD = T_0,  NOEUD = 'N3',  NOM_CMP = 'TEMP', VALE = 99.21,  PRECISION = 1.E-2),
 _F(  CHAM_GD = T_0,  NOEUD = 'N6',  NOM_CMP = 'TEMP', VALE = 93.30,  PRECISION = 1.E-2),
 _F(  CHAM_GD = T_0,  NOEUD = 'N11', NOM_CMP = 'TEMP', VALE = 87.76,  PRECISION = 1.E-2),
 _F(  CHAM_GD = T_0,  NOEUD = 'N9',  NOM_CMP = 'TEMP', VALE = 82.56,  PRECISION = 1.E-2))
            )

FLUXN=CALC_CHAM_ELEM(        MODELE=MOTH,       TEMP=T_0,
                            CHAM_MATER=CHMAT,
                                OPTION='FLUX_ELNO_TEMP'     )

TEST_RESU(CHAM_ELEM=( 
   _F( CHAM_GD = FLUXN, MAILLE = 'M1',  NOEUD = 'N1',    NOM_CMP = 'FLUX',
              VALE = 11577.49, PRECISION = 1.E-2),
   _F( CHAM_GD = FLUXN, MAILLE = 'M1',  NOEUD = 'N1',    NOM_CMP = 'FLUY',
          VALE = 0.0, CRITERE = 'ABSOLU', PRECISION = 1.E0),
   _F( CHAM_GD = FLUXN, MAILLE = 'M1',  NOEUD = 'N5',    NOM_CMP = 'FLUX',
              VALE = 11577.49, PRECISION = 1.E-2),
   _F( CHAM_GD = FLUXN, MAILLE = 'M1',  NOEUD = 'N5',    NOM_CMP = 'FLUY',
          VALE = 0.0, CRITERE = 'ABSOLU', PRECISION = 1.E0),
   _F( CHAM_GD = FLUXN, MAILLE = 'M2',  NOEUD = 'N9',    NOM_CMP = 'FLUX',
              VALE = 8822.98, PRECISION = 1.E-2),
   _F( CHAM_GD = FLUXN, MAILLE = 'M2',  NOEUD = 'N9',    NOM_CMP = 'FLUY',
          VALE = 0.0, CRITERE = 'ABSOLU', PRECISION = 1.E0),
   _F( CHAM_GD = FLUXN, MAILLE = 'M2',  NOEUD = 'N12',   NOM_CMP = 'FLUX',
              VALE = 8822.98, PRECISION = 1.E-2),
   _F( CHAM_GD = FLUXN, MAILLE = 'M2',  NOEUD = 'N12',   NOM_CMP = 'FLUY',
          VALE = 0.0, CRITERE = 'ABSOLU', PRECISION = 1.E0))
          )

TEST_RESU(RESU=( 
   _F(  RESULTAT = TEMPE,  INST = 0.,   NOM_CHAM = 'FLUX_ELNO_TEMP',
     CRITERE = 'RELATIF',         PRECISION = 1.E-2,
      MAILLE = 'M1',     NOEUD = 'N1',   NOM_CMP = 'FLUX',     VALE = 11577.49),
   _F(  RESULTAT = TEMPE,  INST = 0.,   NOM_CHAM = 'FLUX_ELNO_TEMP',
     CRITERE = 'ABSOLU',          PRECISION = 1.E0,
      MAILLE = 'M1',     NOEUD = 'N1',   NOM_CMP = 'FLUY',     VALE = 0.0),
   _F(  RESULTAT = TEMPE,  INST = 0.,   NOM_CHAM = 'FLUX_ELNO_TEMP',
     CRITERE = 'RELATIF',         PRECISION = 1.E-2,
      MAILLE = 'M1',     NOEUD = 'N5',   NOM_CMP = 'FLUX',     VALE = 11577.49),
   _F(  RESULTAT = TEMPE,  INST = 0.,   NOM_CHAM = 'FLUX_ELNO_TEMP',
     CRITERE = 'ABSOLU',          PRECISION = 1.E0,
      MAILLE = 'M1',     NOEUD = 'N5',   NOM_CMP = 'FLUY',     VALE = 0.0),
   _F(  RESULTAT = TEMPE,  INST = 0.,   NOM_CHAM = 'FLUX_ELNO_TEMP',
     CRITERE = 'RELATIF',         PRECISION = 1.E-2,
      MAILLE = 'M2',     NOEUD = 'N9',   NOM_CMP = 'FLUX',     VALE = 8822.98),
   _F(  RESULTAT = TEMPE,  INST = 0.,   NOM_CHAM = 'FLUX_ELNO_TEMP',
     CRITERE = 'ABSOLU',          PRECISION = 1.E0,
      MAILLE = 'M2',     NOEUD = 'N9',   NOM_CMP = 'FLUY',     VALE = 0.0),
   _F(  RESULTAT = TEMPE,  INST = 0.,   NOM_CHAM = 'FLUX_ELNO_TEMP',
     CRITERE = 'RELATIF',         PRECISION = 1.E-2,
      MAILLE = 'M2',     NOEUD = 'N12',  NOM_CMP = 'FLUX',     VALE = 8822.98),
   _F(  RESULTAT = TEMPE,  INST = 0.,   NOM_CHAM = 'FLUX_ELNO_TEMP',
     CRITERE = 'ABSOLU',          PRECISION = 1.E0,
      MAILLE = 'M2',     NOEUD = 'N12',  NOM_CMP = 'FLUY',     VALE = 0.0))
          )

FIN( )
#
