# MODIF  DATE 30/07/2012   AUTEUR LEFEBVRE J-P.LEFEBVRE 
# TITRE TRANSFERT DE CHALEUR UNIDIMENSIONNEL AVEC RAYONNEMENT
# tpnl300a.para = tps_job 60 mem_job 256Mo ncpus 1 liste_test R
#            CONFIGURATION MANAGEMENT OF EDF VERSION
# ======================================================================
# COPYRIGHT (C) 1991 - 2012  EDF R&D                  WWW.CODE-ASTER.ORG
# THIS PROGRAM IS FREE SOFTWARE; YOU CAN REDISTRIBUTE IT AND/OR MODIFY
# IT UNDER THE TERMS OF THE GNU GENERAL PUBLIC LICENSE AS PUBLISHED BY
# THE FREE SOFTWARE FOUNDATION; EITHER VERSION 2 OF THE LICENSE, OR
# (AT YOUR OPTION) ANY LATER VERSION.
#
# THIS PROGRAM IS DISTRIBUTED IN THE HOPE THAT IT WILL BE USEFUL, BUT
# WITHOUT ANY WARRANTY; WITHOUT EVEN THE IMPLIED WARRANTY OF
# MERCHANTABILITY OR FITNESS FOR A PARTICULAR PURPOSE. SEE THE GNU
# GENERAL PUBLIC LICENSE FOR MORE DETAILS.
#
# YOU SHOULD HAVE RECEIVED A COPY OF THE GNU GENERAL PUBLIC LICENSE
# ALONG WITH THIS PROGRAM; IF NOT, WRITE TO EDF R&D CODE_ASTER,
#    1 AVENUE DU GENERAL DE GAULLE, 92141 CLAMART CEDEX, FRANCE.
# ======================================================================
#
# MAILLES : TRIA3 , QUAD4 , SEG2
#

DEBUT(CODE=_F(NOM='TPNL300A', NIV_PUB_WEB='INTERNET'), DEBUG=_F(SDVERI='OUI'))

#
# LECTURE DU MAILLAGE ----------------------------------------------
#

MAIL=LIRE_MAILLAGE(FORMAT='MED', )

#
# DEFINITION DES CHARGEMENTS ET DU MATERIAU ------------------------
#

TIMP=DEFI_FONCTION(    NOM_PARA='INST',  NOM_RESU='TEMP',
                            VALE=(    0.0,    726.85E0,
                                   1000.0,    726.85E0, ),
               PROL_DROITE='LINEAIRE',    PROL_GAUCHE='LINEAIRE' )

RAYO=DEFI_FONCTION(    NOM_PARA='TEMP',
              VALE=( 0.0,     140.760360,
                     5.0,     117.482190,
                    10.0,      92.914251,
                    15.0,      67.009759,
                    20.0,      39.721097,
                    25.0,      10.999814,
                    30.0,     -19.203374,
                    35.0,     -50.938584,
                    40.0,     -84.256769,
                    45.0,    -119.209712,
                    50.0,    -155.850033,
                    55.0,    -194.231182,
                    60.0,    -234.407445,
                    65.0,    -276.433940,
                    70.0,    -320.366621,
                    75.0,    -366.262271,
                    80.0,    -414.178512,
                    85.0,    -464.173794,
                    90.0,    -516.307405,
                    95.0,    -570.639465,
                   100.0,    -627.230925,
# ... 179 like lines cut
                  1000.0, -145541.368783,      ),
         PROL_DROITE='LINEAIRE',   PROL_GAUCHE='LINEAIRE'
      )

CONDUC=DEFI_FONCTION(    NOM_PARA='TEMP',  NOM_RESU='LAMBDA',
                                VALE=(    0.0,    55.6,
                                       1000.0,    55.6, ),
               PROL_DROITE='LINEAIRE',    PROL_GAUCHE='LINEAIRE' )

ENTHAL=DEFI_FONCTION(    NOM_PARA='TEMP',  NOM_RESU='CP',
                                VALE=(    0.0,      0.0,
                                       1000.0,      3.6156E9, ),
               PROL_DROITE='LINEAIRE',    PROL_GAUCHE='LINEAIRE' )

MATER=DEFI_MATERIAU( THER_NL=_F(  LAMBDA = CONDUC,
                                  BETA = ENTHAL) )

#
# AFFECTATIONS: MATERIAU, MODELE, CHARGEMENT ----------------------
#

CHMAT=AFFE_MATERIAU(  MAILLAGE=MAIL,
                AFFE=_F(  TOUT = 'OUI', MATER = MATER) )

MOTH=AFFE_MODELE(  MAILLAGE=MAIL,
                       AFFE=_F( TOUT = 'OUI', MODELISATION = 'PLAN',
                                           PHENOMENE = 'THERMIQUE'))

CHARGE=AFFE_CHAR_THER_F(MODELE=MOTH,
             TEMP_IMPO=_F( GROUP_NO = 'NOE_IMP',   TEMP = TIMP),
               FLUX_NL=_F( GROUP_MA = 'FACE_RAY',  FLUN = RAYO)
          )

#
# RESOLUTION ------------------------------------------------------
#

TEMPE=THER_NON_LINE(       MODELE=MOTH,
                  ETAT_INIT=_F(  STATIONNAIRE = 'OUI'),
                 CHAM_MATER=CHMAT,
                      EXCIT=_F(  CHARGE = CHARGE),
                     NEWTON=_F(  ITER_LINE_MAXI = 2,
                              REAC_ITER = 1)
               )

TEMP=CREA_CHAMP(  OPERATION='EXTR', TYPE_CHAM='NOEU_TEMP_R',
NOM_CHAM='TEMP', RESULTAT=TEMPE, INST=0. )

#
# ANALYSE DES RESULTATS -------------------------------------------
#

TEST_RESU(CHAM_NO=(
_F( CHAM_GD = TEMP, NOEUD = 'N51', NOM_CMP = 'TEMP', VALE = 653.85, PRECISION = 1.E-4),
_F( CHAM_GD = TEMP, NOEUD = 'N52', NOM_CMP = 'TEMP', VALE = 653.85, PRECISION = 1.E-4),
_F( CHAM_GD = TEMP, NOEUD = 'N53', NOM_CMP = 'TEMP', VALE = 653.85, PRECISION = 1.E-4),
_F( CHAM_GD = TEMP, NOEUD = 'N54', NOM_CMP = 'TEMP', VALE = 653.85, PRECISION = 1.E-4),
_F( CHAM_GD = TEMP, NOEUD = 'N55', NOM_CMP = 'TEMP', VALE = 653.85, PRECISION = 1.E-4))
   )

FIN()
#
