# TITRE   : SPHERE CREUSE: CONVECTION, RAYONNEMENT
# ======================================================================
# COPYRIGHT (C) 1991 - 2012  EDF R&D                  WWW.CODE-ASTER.ORG
# THIS PROGRAM IS FREE SOFTWARE; YOU CAN REDISTRIBUTE IT AND/OR MODIFY
# IT UNDER THE TERMS OF THE GNU GENERAL PUBLIC LICENSE AS PUBLISHED BY
# THE FREE SOFTWARE FOUNDATION; EITHER VERSION 2 OF THE LICENSE, OR
# (AT YOUR OPTION) ANY LATER VERSION.
#
# THIS PROGRAM IS DISTRIBUTED IN THE HOPE THAT IT WILL BE USEFUL, BUT
# WITHOUT ANY WARRANTY; WITHOUT EVEN THE IMPLIED WARRANTY OF
# MERCHANTABILITY OR FITNESS FOR A PARTICULAR PURPOSE. SEE THE GNU
# GENERAL PUBLIC LICENSE FOR MORE DETAILS.
#
# YOU SHOULD HAVE RECEIVED A COPY OF THE GNU GENERAL PUBLIC LICENSE
# ALONG WITH THIS PROGRAM; IF NOT, WRITE TO EDF R&D CODE_ASTER,
#    1 AVENUE DU GENERAL DE GAULLE, 92141 CLAMART CEDEX, FRANCE.
# ======================================================================
#
# MAILLES : HEXA20 , PENTA15 , QUAD8
#

DEBUT(CODE=_F(NIV_PUB_WEB='INTERNET'),DEBUG=_F(SDVERI='OUI'))

#
# LECTURE DU MAILLAGE ----------------------------------------------
#

MAIL=LIRE_MAILLAGE(FORMAT='MED', )

#
# DEFINITION DES CHARGEMENTS ET DU MATERIAU ------------------------
#

HE=DEFI_FONCTION(    NOM_PARA='INST',  NOM_RESU='TEMP',
                                VALE=(    0.0,    133.5,
                                       1000.0,    133.5, ),
               PROL_DROITE='LINEAIRE',    PROL_GAUCHE='LINEAIRE' )

TEXT=DEFI_FONCTION(    NOM_PARA='INST',  NOM_RESU='TEMP',
                                VALE=(    0.0,    20.0,
                                       1000.0,    20.0, ),
               PROL_DROITE='LINEAIRE',    PROL_GAUCHE='LINEAIRE' )

RAYO=DEFI_FONCTION(    NOM_PARA='TEMP',
              VALE=( 0.0,   12093.210750,
                     5.0,   12078.807995,
                    10.0,   12063.607229,
                    15.0,   12047.579506,
                    20.0,   12030.695365,
                    25.0,   12012.924827,
                    30.0,   11994.237400,
                    35.0,   11974.602073,
                    40.0,   11953.987324,
                    45.0,   11932.361110,
                    50.0,   11909.690876,
                    55.0,   11885.943550,
                    60.0,   11861.085545,
                    65.0,   11835.082757,
                    70.0,   11807.900567,
                    75.0,   11779.503841,
                    80.0,   11749.856929,
                    85.0,   11718.923663,
                    90.0,   11686.667364,
                    95.0,   11653.050832,
                   100.0,   11618.036356,
# ... 79 like lines cut
                   500.0,       0.0,              ),
         PROL_DROITE='LINEAIRE',   PROL_GAUCHE='LINEAIRE'
      )

CONDUC=DEFI_FONCTION(    NOM_PARA='TEMP',  NOM_RESU='LAMBDA',
                                VALE=(    0.0,    40.0,
                                       1000.0,    40.0, ),
               PROL_DROITE='LINEAIRE',    PROL_GAUCHE='LINEAIRE' )

ENTHAL=DEFI_FONCTION(    NOM_PARA='TEMP',  NOM_RESU='BETA',
                                VALE=(    0.0,      0.0,
                                       1000.0,      1000.0, ),
               PROL_DROITE='LINEAIRE',    PROL_GAUCHE='LINEAIRE' )

RHOCP=DEFI_FONCTION(    NOM_PARA='TEMP',  NOM_RESU='RHO_CP',
                                VALE=(    0.0,      1.0,
                                       1000.0,      1.0, ),
               PROL_DROITE='LINEAIRE',    PROL_GAUCHE='LINEAIRE' )

MATERB=DEFI_MATERIAU( THER_NL=_F(  LAMBDA = CONDUC,
                                    BETA = ENTHAL) )

MATERR=DEFI_MATERIAU( THER_NL=_F(  LAMBDA = CONDUC,
                                    RHO_CP = RHOCP) )

#
# AFFECTATIONS: MATERIAU, MODELE, CHARGEMENT ----------------------
#


CHMATB=AFFE_MATERIAU(  MAILLAGE=MAIL,
                             AFFE=_F(  TOUT = 'OUI', MATER = MATERB) )

CHMATR=AFFE_MATERIAU(  MAILLAGE=MAIL,
                             AFFE=_F(  TOUT = 'OUI', MATER = MATERR) )

MOTH=AFFE_MODELE(  MAILLAGE=MAIL,
                         AFFE=_F( TOUT = 'OUI', MODELISATION = '3D',
                                        PHENOMENE = 'THERMIQUE'))

CHARGE=AFFE_CHAR_THER_F(MODELE=MOTH,
             FLUX_NL=_F( GROUP_MA = 'SURF_INT',  FLUN = RAYO),
             ECHANGE=_F( GROUP_MA = 'SURF_EXT',  COEF_H = HE, TEMP_EXT = TEXT)
           )

#
# RESOLUTION ------------------------------------------------------
#

TEMPEB=THER_NON_LINE(       MODELE=MOTH,
               ETAT_INIT=_F(    STATIONNAIRE = 'OUI'),
               CHAM_MATER=CHMATB,
                    EXCIT=_F(  CHARGE = CHARGE)
             )

#

TEMPER=THER_NON_LINE(       MODELE=MOTH,
               ETAT_INIT=_F(    STATIONNAIRE = 'OUI'),
               CHAM_MATER=CHMATR,
                    EXCIT=_F(  CHARGE = CHARGE)
             )

#
# ANALYSE DES RESULTATS -------------------------------------------
#

TEST_RESU(RESU=(_F(NUME_ORDRE=0,
                   REFERENCE='ANALYTIQUE',
                   RESULTAT=TEMPEB,
                   NOM_CHAM='TEMP',
                   NOEUD='N184',
                   NOM_CMP='TEMP',
                   VALE_REFE=91.77,
                   VALE_CALC=91.762972196447,
                   PRECISION=1.E-4,
                   ),
                _F(NUME_ORDRE=0,
                   REFERENCE='ANALYTIQUE',
                   RESULTAT=TEMPEB,
                   NOM_CHAM='TEMP',
                   NOEUD='N183',
                   NOM_CMP='TEMP',
                   VALE_REFE=91.77,
                   VALE_CALC=91.768167095887,
                   PRECISION=1.E-4,
                   ),
                _F(NUME_ORDRE=0,
                   REFERENCE='ANALYTIQUE',
                   RESULTAT=TEMPEB,
                   NOM_CHAM='TEMP',
                   NOEUD='N145',
                   NOM_CMP='TEMP',
                   VALE_REFE=91.77,
                   VALE_CALC=91.76285151152,
                   PRECISION=1.E-4,
                   ),
                _F(NUME_ORDRE=0,
                   REFERENCE='ANALYTIQUE',
                   RESULTAT=TEMPEB,
                   NOM_CHAM='TEMP',
                   NOEUD='N133',
                   NOM_CMP='TEMP',
                   VALE_REFE=91.77,
                   VALE_CALC=91.770784211914,
                   PRECISION=1.E-4,
                   ),
                _F(NUME_ORDRE=0,
                   REFERENCE='ANALYTIQUE',
                   RESULTAT=TEMPEB,
                   NOM_CHAM='TEMP',
                   NOEUD='N93',
                   NOM_CMP='TEMP',
                   VALE_REFE=91.77,
                   VALE_CALC=91.769600647122,
                   PRECISION=1.E-4,
                   ),
                _F(NUME_ORDRE=0,
                   REFERENCE='ANALYTIQUE',
                   RESULTAT=TEMPEB,
                   NOM_CHAM='TEMP',
                   NOEUD='N61',
                   NOM_CMP='TEMP',
                   VALE_REFE=91.77,
                   VALE_CALC=91.76548051572,
                   PRECISION=1.E-4,
                   ),
                _F(NUME_ORDRE=0,
                   REFERENCE='ANALYTIQUE',
                   RESULTAT=TEMPEB,
                   NOM_CHAM='TEMP',
                   NOEUD='N46',
                   NOM_CMP='TEMP',
                   VALE_REFE=91.77,
                   VALE_CALC=91.771623915658,
                   PRECISION=1.E-4,
                   ),
                _F(NUME_ORDRE=0,
                   REFERENCE='ANALYTIQUE',
                   RESULTAT=TEMPEB,
                   NOM_CHAM='TEMP',
                   NOEUD='N25',
                   NOM_CMP='TEMP',
                   VALE_REFE=91.77,
                   VALE_CALC=91.765461262978,
                   PRECISION=1.E-4,
                   ),
                _F(NUME_ORDRE=0,
                   RESULTAT=TEMPEB,
                   REFERENCE='ANALYTIQUE',
                   NOM_CHAM='TEMP',
                   NOEUD='N38',
                   NOM_CMP='TEMP',
                   VALE_REFE=91.77,
                   VALE_CALC=91.772094301675,
                   PRECISION=1.E-4,
                   ),
                _F(NUME_ORDRE=0,
                   REFERENCE='ANALYTIQUE',
                   RESULTAT=TEMPEB,
                   NOM_CHAM='TEMP',
                   NOEUD='N460',
                   NOM_CMP='TEMP',
                   VALE_REFE=71.22,
                   VALE_CALC=71.224031962076,
                   PRECISION=1.E-4,
                   ),
                _F(NUME_ORDRE=0,
                   REFERENCE='ANALYTIQUE',
                   RESULTAT=TEMPEB,
                   NOM_CHAM='TEMP',
                   NOEUD='N459',
                   NOM_CMP='TEMP',
                   VALE_REFE=71.22,
                   VALE_CALC=71.220806494924,
                   PRECISION=1.E-4,
                   ),
                _F(NUME_ORDRE=0,
                   REFERENCE='ANALYTIQUE',
                   RESULTAT=TEMPEB,
                   NOM_CHAM='TEMP',
                   NOEUD='N443',
                   NOM_CMP='TEMP',
                   VALE_REFE=71.22,
                   VALE_CALC=71.223734688127,
                   PRECISION=1.E-4,
                   ),
                _F(NUME_ORDRE=0,
                   REFERENCE='ANALYTIQUE',
                   RESULTAT=TEMPEB,
                   NOM_CHAM='TEMP',
                   NOEUD='N438',
                   NOM_CMP='TEMP',
                   VALE_REFE=71.22,
                   VALE_CALC=71.219584476399,
                   PRECISION=1.E-4,
                   ),
                _F(NUME_ORDRE=0,
                   REFERENCE='ANALYTIQUE',
                   RESULTAT=TEMPEB,
                   NOM_CHAM='TEMP',
                   NOEUD='N440',
                   NOM_CMP='TEMP',
                   VALE_REFE=71.22,
                   VALE_CALC=71.21974178762,
                   PRECISION=1.E-4,
                   ),
                _F(NUME_ORDRE=0,
                   REFERENCE='ANALYTIQUE',
                   RESULTAT=TEMPEB,
                   NOM_CHAM='TEMP',
                   NOEUD='N450',
                   NOM_CMP='TEMP',
                   VALE_REFE=71.22,
                   VALE_CALC=71.22272152871,
                   PRECISION=1.E-4,
                   ),
                _F(NUME_ORDRE=0,
                   REFERENCE='ANALYTIQUE',
                   RESULTAT=TEMPEB,
                   NOM_CHAM='TEMP',
                   NOEUD='N453',
                   NOM_CMP='TEMP',
                   VALE_REFE=71.22,
                   VALE_CALC=71.216949901028,
                   PRECISION=1.E-4,
                   ),
                _F(NUME_ORDRE=0,
                   REFERENCE='ANALYTIQUE',
                   RESULTAT=TEMPEB,
                   NOM_CHAM='TEMP',
                   NOEUD='N465',
                   NOM_CMP='TEMP',
                   VALE_REFE=71.22,
                   VALE_CALC=71.221323257302,
                   PRECISION=1.E-4,
                   ),
                _F(NUME_ORDRE=0,
                   REFERENCE='ANALYTIQUE',
                   RESULTAT=TEMPEB,
                   NOM_CHAM='TEMP',
                   NOEUD='N463',
                   NOM_CMP='TEMP',
                   VALE_REFE=71.22,
                   VALE_CALC=71.216034733245,
                   PRECISION=1.E-4,
                   ),
                ),
          )

#

TEST_RESU(RESU=(_F(NUME_ORDRE=0,
                   REFERENCE='ANALYTIQUE',
                   RESULTAT=TEMPER,
                   NOM_CHAM='TEMP',
                   NOEUD='N184',
                   NOM_CMP='TEMP',
                   VALE_REFE=91.77,
                   VALE_CALC=91.762972196447,
                   PRECISION=1.E-4,
                   ),
                _F(NUME_ORDRE=0,
                   REFERENCE='ANALYTIQUE',
                   RESULTAT=TEMPER,
                   NOM_CHAM='TEMP',
                   NOEUD='N183',
                   NOM_CMP='TEMP',
                   VALE_REFE=91.77,
                   VALE_CALC=91.768167095887,
                   PRECISION=1.E-4,
                   ),
                _F(NUME_ORDRE=0,
                   REFERENCE='ANALYTIQUE',
                   RESULTAT=TEMPER,
                   NOM_CHAM='TEMP',
                   NOEUD='N145',
                   NOM_CMP='TEMP',
                   VALE_REFE=91.77,
                   VALE_CALC=91.76285151152,
                   PRECISION=1.E-4,
                   ),
                _F(NUME_ORDRE=0,
                   REFERENCE='ANALYTIQUE',
                   RESULTAT=TEMPER,
                   NOM_CHAM='TEMP',
                   NOEUD='N133',
                   NOM_CMP='TEMP',
                   VALE_REFE=91.77,
                   VALE_CALC=91.770784211914,
                   PRECISION=1.E-4,
                   ),
                _F(NUME_ORDRE=0,
                   REFERENCE='ANALYTIQUE',
                   RESULTAT=TEMPER,
                   NOM_CHAM='TEMP',
                   NOEUD='N93',
                   NOM_CMP='TEMP',
                   VALE_REFE=91.77,
                   VALE_CALC=91.769600647122,
                   PRECISION=1.E-4,
                   ),
                _F(NUME_ORDRE=0,
                   REFERENCE='ANALYTIQUE',
                   RESULTAT=TEMPER,
                   NOM_CHAM='TEMP',
                   NOEUD='N61',
                   NOM_CMP='TEMP',
                   VALE_REFE=91.77,
                   VALE_CALC=91.76548051572,
                   PRECISION=1.E-4,
                   ),
                _F(NUME_ORDRE=0,
                   REFERENCE='ANALYTIQUE',
                   RESULTAT=TEMPER,
                   NOM_CHAM='TEMP',
                   NOEUD='N46',
                   NOM_CMP='TEMP',
                   VALE_REFE=91.77,
                   VALE_CALC=91.771623915658,
                   PRECISION=1.E-4,
                   ),
                _F(NUME_ORDRE=0,
                   REFERENCE='ANALYTIQUE',
                   RESULTAT=TEMPER,
                   NOM_CHAM='TEMP',
                   NOEUD='N25',
                   NOM_CMP='TEMP',
                   VALE_REFE=91.77,
                   VALE_CALC=91.765461262978,
                   PRECISION=1.E-4,
                   ),
                _F(NUME_ORDRE=0,
                   REFERENCE='ANALYTIQUE',
                   RESULTAT=TEMPER,
                   NOM_CHAM='TEMP',
                   NOEUD='N38',
                   NOM_CMP='TEMP',
                   VALE_REFE=91.77,
                   VALE_CALC=91.772094301675,
                   PRECISION=1.E-4,
                   ),
                _F(NUME_ORDRE=0,
                   REFERENCE='ANALYTIQUE',
                   RESULTAT=TEMPER,
                   NOM_CHAM='TEMP',
                   NOEUD='N460',
                   NOM_CMP='TEMP',
                   VALE_REFE=71.22,
                   VALE_CALC=71.224031962076,
                   PRECISION=1.E-4,
                   ),
                _F(NUME_ORDRE=0,
                   REFERENCE='ANALYTIQUE',
                   RESULTAT=TEMPER,
                   NOM_CHAM='TEMP',
                   NOEUD='N459',
                   NOM_CMP='TEMP',
                   VALE_REFE=71.22,
                   VALE_CALC=71.220806494924,
                   PRECISION=1.E-4,
                   ),
                _F(NUME_ORDRE=0,
                   REFERENCE='ANALYTIQUE',
                   RESULTAT=TEMPER,
                   NOM_CHAM='TEMP',
                   NOEUD='N443',
                   NOM_CMP='TEMP',
                   VALE_REFE=71.22,
                   VALE_CALC=71.223734688127,
                   PRECISION=1.E-4,
                   ),
                _F(NUME_ORDRE=0,
                   REFERENCE='ANALYTIQUE',
                   RESULTAT=TEMPER,
                   NOM_CHAM='TEMP',
                   NOEUD='N438',
                   NOM_CMP='TEMP',
                   VALE_REFE=71.22,
                   VALE_CALC=71.219584476399,
                   PRECISION=1.E-4,
                   ),
                _F(NUME_ORDRE=0,
                   REFERENCE='ANALYTIQUE',
                   RESULTAT=TEMPER,
                   NOM_CHAM='TEMP',
                   NOEUD='N440',
                   NOM_CMP='TEMP',
                   VALE_REFE=71.22,
                   VALE_CALC=71.21974178762,
                   PRECISION=1.E-4,
                   ),
                _F(NUME_ORDRE=0,
                   REFERENCE='ANALYTIQUE',
                   RESULTAT=TEMPER,
                   NOM_CHAM='TEMP',
                   NOEUD='N450',
                   NOM_CMP='TEMP',
                   VALE_REFE=71.22,
                   VALE_CALC=71.22272152871,
                   PRECISION=1.E-4,
                   ),
                _F(NUME_ORDRE=0,
                   REFERENCE='ANALYTIQUE',
                   RESULTAT=TEMPER,
                   NOM_CHAM='TEMP',
                   NOEUD='N453',
                   NOM_CMP='TEMP',
                   VALE_REFE=71.22,
                   VALE_CALC=71.216949901028,
                   PRECISION=1.E-4,
                   ),
                _F(NUME_ORDRE=0,
                   REFERENCE='ANALYTIQUE',
                   RESULTAT=TEMPER,
                   NOM_CHAM='TEMP',
                   NOEUD='N465',
                   NOM_CMP='TEMP',
                   VALE_REFE=71.22,
                   VALE_CALC=71.221323257302,
                   PRECISION=1.E-4,
                   ),
                _F(NUME_ORDRE=0,
                   REFERENCE='ANALYTIQUE',
                   RESULTAT=TEMPER,
                   NOM_CHAM='TEMP',
                   NOEUD='N463',
                   NOM_CMP='TEMP',
                   VALE_REFE=71.22,
                   VALE_CALC=71.216034733245,
                   PRECISION=1.E-4,
                   ),
                ),
          )

TEMPEB=CALC_CHAMP(reuse=TEMPEB,RESULTAT=TEMPEB,

                 THERMIQUE=('FLUX_ELNO'),
                NUME_ORDRE=0
                );



TEST_RESU(RESU=(_F(NUME_ORDRE=0,
                   RESULTAT=TEMPEB,
                   NOM_CHAM='FLUX_ELNO',
                   NOEUD='N184',
                   NOM_CMP='FLUX',
                   VALE_CALC= 1.16694415E+04,
                   VALE_REFE=1.1675E4,
                   REFERENCE='ANALYTIQUE',
                   PRECISION=1.E-2,
                   MAILLE='M8',),
                _F(NUME_ORDRE=0,
                   RESULTAT=TEMPEB,
                   NOM_CHAM='FLUX_ELNO',
                   NOEUD='N460',
                   NOM_CMP='FLUX',
                   VALE_CALC= 6.83798911E+03,
                   VALE_REFE=6838.0,
                   REFERENCE='ANALYTIQUE',
                   PRECISION=1.E-2,
                   MAILLE='M2',),
                ),
          )

#
# ==================================================================
# TEST DE RHO_CP FONCTION DE TEMP NON CONSTANTE (BETA PARABOLIQUE)


ENTHAL2=DEFI_FONCTION(    NOM_PARA='TEMP',  NOM_RESU='BETA',
                                VALE=(    0.0,      0.0,
                                        100.0,     10.0,
                                        200.0,     40.0,
                                        300.0,     90.0,
                                        400.0,    160.0,
                                        500.0,    250.0,
                                        600.0,    360.0,
                                        700.0,    490.0,
                                        800.0,    640.0,
                                        900.0,    810.0,
                                       1000.0,   1000.0, ),
               PROL_DROITE='LINEAIRE',    PROL_GAUCHE='LINEAIRE' )

RHOCP2=DEFI_FONCTION(    NOM_PARA='TEMP',  NOM_RESU='RHO_CP',
                                VALE=(    0.0,      0.0,
                                        100.0,      0.2,
                                        200.0,      0.4,
                                        300.0,      0.6,
                                        400.0,      0.8,
                                        500.0,      1.0,
                                        600.0,      1.2,
                                        700.0,      1.4,
                                        800.0,      1.6,
                                        900.0,      1.8,
                                       1000.0,      2.0, ),
               PROL_DROITE='LINEAIRE',    PROL_GAUCHE='LINEAIRE' )

MATERB2=DEFI_MATERIAU( THER_NL=_F(  LAMBDA = CONDUC,
                                    BETA = ENTHAL2) )

MATERR2=DEFI_MATERIAU( THER_NL=_F(  LAMBDA = CONDUC,
                                    BETA = RHOCP2) )

#

CHMATB2=AFFE_MATERIAU(  MAILLAGE=MAIL,
                         AFFE=_F(  TOUT = 'OUI', MATER = MATERB2) )

CHMATR2=AFFE_MATERIAU(  MAILLAGE=MAIL,
                         AFFE=_F(  TOUT = 'OUI', MATER = MATERR2) )

#
# RESOLUTION ------------------------------------------------------
#

TEMPEB2=THER_NON_LINE(       MODELE=MOTH,
                              ETAT_INIT=_F( STATIONNAIRE = 'OUI'),
                             CHAM_MATER=CHMATB2,
                                  EXCIT=_F( CHARGE = CHARGE)
                           )

#

TEMPER2=THER_NON_LINE(       MODELE=MOTH,
                              ETAT_INIT=_F( STATIONNAIRE = 'OUI'),
                             CHAM_MATER=CHMATR2,
                                  EXCIT=_F( CHARGE = CHARGE)
                           )

#
# ANALYSE DES RESULTATS -------------------------------------------
#
TEMPB2=CREA_CHAMP(  OPERATION='EXTR', TYPE_CHAM='NOEU_TEMP_R',
NOM_CHAM='TEMP', RESULTAT=TEMPEB2, INST=0.)

TEST_RESU(CHAM_NO=(_F(NOEUD='N184',
                      REFERENCE='ANALYTIQUE',
                      NOM_CMP='TEMP',
                      CHAM_GD=TEMPB2,
                      VALE_REFE=91.77,
                      VALE_CALC=91.762972196447,
                      PRECISION=1.E-3,),
                   _F(NOEUD='N183',
                      REFERENCE='ANALYTIQUE',
                      NOM_CMP='TEMP',
                      CHAM_GD=TEMPB2,
                      VALE_REFE=91.77,
                      VALE_CALC=91.768167095887,
                      PRECISION=1.E-3,),
                   _F(NOEUD='N145',
                      REFERENCE='ANALYTIQUE',
                      NOM_CMP='TEMP',
                      CHAM_GD=TEMPB2,
                      VALE_REFE=91.77,
                      VALE_CALC=91.76285151152,
                      PRECISION=1.E-3,),
                   _F(NOEUD='N133',
                      REFERENCE='ANALYTIQUE',
                      NOM_CMP='TEMP',
                      CHAM_GD=TEMPB2,
                      VALE_REFE=91.77,
                      VALE_CALC=91.770784211914,
                      PRECISION=1.E-3,),
                   _F(NOEUD='N93',
                      REFERENCE='ANALYTIQUE',
                      NOM_CMP='TEMP',
                      CHAM_GD=TEMPB2,
                      VALE_REFE=91.77,
                      VALE_CALC=91.769600647122,
                      PRECISION=1.E-3,),
                   _F(NOEUD='N61',
                      REFERENCE='ANALYTIQUE',
                      NOM_CMP='TEMP',
                      CHAM_GD=TEMPB2,
                      VALE_REFE=91.77,
                      VALE_CALC=91.76548051572,
                      PRECISION=1.E-3,),
                   _F(NOEUD='N46',
                      REFERENCE='ANALYTIQUE',
                      NOM_CMP='TEMP',
                      CHAM_GD=TEMPB2,
                      VALE_REFE=91.77,
                      VALE_CALC=91.771623915658,
                      PRECISION=1.E-3,),
                   _F(NOEUD='N25',
                      REFERENCE='ANALYTIQUE',
                      NOM_CMP='TEMP',
                      CHAM_GD=TEMPB2,
                      VALE_REFE=91.77,
                      VALE_CALC=91.765461262978,
                      PRECISION=1.E-3,),
                   _F(NOEUD='N38',
                      REFERENCE='ANALYTIQUE',
                      NOM_CMP='TEMP',
                      CHAM_GD=TEMPB2,
                      VALE_REFE=91.77,
                      VALE_CALC=91.772094301675,
                      PRECISION=1.E-3,),
                   _F(NOEUD='N460',
                      REFERENCE='ANALYTIQUE',
                      NOM_CMP='TEMP',
                      CHAM_GD=TEMPB2,
                      VALE_REFE=71.22,
                      VALE_CALC=71.224031962076,
                      PRECISION=1.E-3,),
                   _F(NOEUD='N459',
                      REFERENCE='ANALYTIQUE',
                      NOM_CMP='TEMP',
                      CHAM_GD=TEMPB2,
                      VALE_REFE=71.22,
                      VALE_CALC=71.220806494924,
                      PRECISION=1.E-3,),
                   _F(NOEUD='N443',
                      REFERENCE='ANALYTIQUE',
                      NOM_CMP='TEMP',
                      CHAM_GD=TEMPB2,
                      VALE_REFE=71.22,
                      VALE_CALC=71.223734688127,
                      PRECISION=1.E-3,),
                   _F(NOEUD='N438',
                      REFERENCE='ANALYTIQUE',
                      NOM_CMP='TEMP',
                      CHAM_GD=TEMPB2,
                      VALE_REFE=71.22,
                      VALE_CALC=71.219584476399,
                      PRECISION=1.E-3,),
                   _F(NOEUD='N440',
                      REFERENCE='ANALYTIQUE',
                      NOM_CMP='TEMP',
                      CHAM_GD=TEMPB2,
                      VALE_REFE=71.22,
                      VALE_CALC=71.21974178762,
                      PRECISION=1.E-3,),
                   _F(NOEUD='N450',
                      REFERENCE='ANALYTIQUE',
                      NOM_CMP='TEMP',
                      CHAM_GD=TEMPB2,
                      VALE_REFE=71.22,
                      VALE_CALC=71.22272152871,
                      PRECISION=1.E-3,),
                   _F(NOEUD='N453',
                      REFERENCE='ANALYTIQUE',
                      NOM_CMP='TEMP',
                      CHAM_GD=TEMPB2,
                      VALE_REFE=71.22,
                      VALE_CALC=71.216949901028,
                      PRECISION=1.E-3,),
                   _F(NOEUD='N465',
                      REFERENCE='ANALYTIQUE',
                      NOM_CMP='TEMP',
                      CHAM_GD=TEMPB2,
                      VALE_REFE=71.22,
                      VALE_CALC=71.221323257302,
                      PRECISION=1.E-3,),
                   _F(NOEUD='N463',
                      REFERENCE='ANALYTIQUE',
                      NOM_CMP='TEMP',
                      CHAM_GD=TEMPB2,
                      VALE_REFE=71.22,
                      VALE_CALC=71.216034733245,
                      PRECISION=1.E-3,),
                   ),
          )

#
TEMPR2=CREA_CHAMP(  OPERATION='EXTR', TYPE_CHAM='NOEU_TEMP_R',
NOM_CHAM='TEMP', RESULTAT=TEMPER2, INST=0.)

TEST_RESU(CHAM_NO=(_F(NOEUD='N184',
                      REFERENCE='ANALYTIQUE',
                      NOM_CMP='TEMP',
                      CHAM_GD=TEMPR2,
                      VALE_REFE=91.77,
                      VALE_CALC=91.762972196447,
                      PRECISION=1.E-3,),
                   _F(NOEUD='N183',
                      REFERENCE='ANALYTIQUE',
                      NOM_CMP='TEMP',
                      CHAM_GD=TEMPR2,
                      VALE_REFE=91.77,
                      VALE_CALC=91.768167095887,
                      PRECISION=1.E-3,),
                   _F(NOEUD='N145',
                      REFERENCE='ANALYTIQUE',
                      NOM_CMP='TEMP',
                      CHAM_GD=TEMPR2,
                      VALE_REFE=91.77,
                      VALE_CALC=91.76285151152,
                      PRECISION=1.E-3,),
                   _F(NOEUD='N133',
                      REFERENCE='ANALYTIQUE',
                      NOM_CMP='TEMP',
                      CHAM_GD=TEMPR2,
                      VALE_REFE=91.77,
                      VALE_CALC=91.770784211914,
                      PRECISION=1.E-3,),
                   _F(NOEUD='N93',
                      REFERENCE='ANALYTIQUE',
                      NOM_CMP='TEMP',
                      CHAM_GD=TEMPR2,
                      VALE_REFE=91.77,
                      VALE_CALC=91.769600647122,
                      PRECISION=1.E-3,),
                   _F(NOEUD='N61',
                      REFERENCE='ANALYTIQUE',
                      NOM_CMP='TEMP',
                      CHAM_GD=TEMPR2,
                      VALE_REFE=91.77,
                      VALE_CALC=91.76548051572,
                      PRECISION=1.E-3,),
                   _F(NOEUD='N46',
                      REFERENCE='ANALYTIQUE',
                      NOM_CMP='TEMP',
                      CHAM_GD=TEMPR2,
                      VALE_REFE=91.77,
                      VALE_CALC=91.771623915658,
                      PRECISION=1.E-3,),
                   _F(NOEUD='N25',
                      REFERENCE='ANALYTIQUE',
                      NOM_CMP='TEMP',
                      CHAM_GD=TEMPR2,
                      VALE_REFE=91.77,
                      VALE_CALC=91.765461262978,
                      PRECISION=1.E-3,),
                   _F(NOEUD='N38',
                      REFERENCE='ANALYTIQUE',
                      NOM_CMP='TEMP',
                      CHAM_GD=TEMPR2,
                      VALE_REFE=91.77,
                      VALE_CALC=91.772094301675,
                      PRECISION=1.E-3,),
                   _F(NOEUD='N460',
                      REFERENCE='ANALYTIQUE',
                      NOM_CMP='TEMP',
                      CHAM_GD=TEMPR2,
                      VALE_REFE=71.22,
                      VALE_CALC=71.224031962076,
                      PRECISION=1.E-3,),
                   _F(NOEUD='N459',
                      REFERENCE='ANALYTIQUE',
                      NOM_CMP='TEMP',
                      CHAM_GD=TEMPR2,
                      VALE_REFE=71.22,
                      VALE_CALC=71.220806494924,
                      PRECISION=1.E-3,),
                   _F(NOEUD='N443',
                      REFERENCE='ANALYTIQUE',
                      NOM_CMP='TEMP',
                      CHAM_GD=TEMPR2,
                      VALE_REFE=71.22,
                      VALE_CALC=71.223734688127,
                      PRECISION=1.E-3,),
                   _F(NOEUD='N438',
                      REFERENCE='ANALYTIQUE',
                      NOM_CMP='TEMP',
                      CHAM_GD=TEMPR2,
                      VALE_REFE=71.22,
                      VALE_CALC=71.219584476399,
                      PRECISION=1.E-3,),
                   _F(NOEUD='N440',
                      REFERENCE='ANALYTIQUE',
                      NOM_CMP='TEMP',
                      CHAM_GD=TEMPR2,
                      VALE_REFE=71.22,
                      VALE_CALC=71.21974178762,
                      PRECISION=1.E-3,),
                   _F(NOEUD='N450',
                      REFERENCE='ANALYTIQUE',
                      NOM_CMP='TEMP',
                      CHAM_GD=TEMPR2,
                      VALE_REFE=71.22,
                      VALE_CALC=71.22272152871,
                      PRECISION=1.E-3,),
                   _F(NOEUD='N453',
                      REFERENCE='ANALYTIQUE',
                      NOM_CMP='TEMP',
                      CHAM_GD=TEMPR2,
                      VALE_REFE=71.22,
                      VALE_CALC=71.216949901028,
                      PRECISION=1.E-3,),
                   _F(NOEUD='N465',
                      REFERENCE='ANALYTIQUE',
                      NOM_CMP='TEMP',
                      CHAM_GD=TEMPR2,
                      VALE_REFE=71.22,
                      VALE_CALC=71.221323257302,
                      PRECISION=1.E-3,),
                   _F(NOEUD='N463',
                      REFERENCE='ANALYTIQUE',
                      NOM_CMP='TEMP',
                      CHAM_GD=TEMPR2,
                      VALE_REFE=71.22,
                      VALE_CALC=71.216034733245,
                      PRECISION=1.E-3,),
                   ),
          )

#
FIN()
