# MODIF  DATE 08/11/2007   AUTEUR SALMONA L.SALMONA 
# TITRE   : SPHERE CREUSE: CONVECTION, RAYONNEMENT
#            CONFIGURATION MANAGEMENT OF EDF VERSION
# ======================================================================
# COPYRIGHT (C) 1991 - 2001  EDF R&D                  WWW.CODE-ASTER.ORG
# THIS PROGRAM IS FREE SOFTWARE; YOU CAN REDISTRIBUTE IT AND/OR MODIFY
# IT UNDER THE TERMS OF THE GNU GENERAL PUBLIC LICENSE AS PUBLISHED BY
# THE FREE SOFTWARE FOUNDATION; EITHER VERSION 2 OF THE LICENSE, OR
# (AT YOUR OPTION) ANY LATER VERSION.
#
# THIS PROGRAM IS DISTRIBUTED IN THE HOPE THAT IT WILL BE USEFUL, BUT
# WITHOUT ANY WARRANTY; WITHOUT EVEN THE IMPLIED WARRANTY OF
# MERCHANTABILITY OR FITNESS FOR A PARTICULAR PURPOSE. SEE THE GNU
# GENERAL PUBLIC LICENSE FOR MORE DETAILS.
#
# YOU SHOULD HAVE RECEIVED A COPY OF THE GNU GENERAL PUBLIC LICENSE
# ALONG WITH THIS PROGRAM; IF NOT, WRITE TO EDF R&D CODE_ASTER,
#    1 AVENUE DU GENERAL DE GAULLE, 92141 CLAMART CEDEX, FRANCE.
# ======================================================================
#
# MAILLES : QUAD8 , TRIA6 , SEG3
#

DEBUT(CODE=_F(NOM='TPNV01B',NIV_PUB_WEB='INTERNET'),DEBUG=_F(SDVERI='NON'))

#
# LECTURE DU MAILLAGE ----------------------------------------------
#

MAIL=LIRE_MAILLAGE( )

#
# DEFINITION DES CHARGEMENTS ET DU MATERIAU ------------------------
#


HE=DEFI_FONCTION(    NOM_PARA='INST',  NOM_RESU='TEMP',
                              VALE=(    0.0,    133.5,
                                     1000.0,    133.5, ),
               PROL_DROITE='LINEAIRE',    PROL_GAUCHE='LINEAIRE' )

TEXT=DEFI_FONCTION(    NOM_PARA='INST',  NOM_RESU='TEMP',
                              VALE=(    0.0,    20.0,
                                     1000.0,    20.0, ),
               PROL_DROITE='LINEAIRE',    PROL_GAUCHE='LINEAIRE' )

RAYO=DEFI_FONCTION(    NOM_PARA='TEMP',
              VALE=( 0.0,   12093.210750,
                     5.0,   12078.807995,
                    10.0,   12063.607229,
                    15.0,   12047.579506,
                    20.0,   12030.695365,
                    25.0,   12012.924827,
                    30.0,   11994.237400,
                    35.0,   11974.602073,
                    40.0,   11953.987324,
                    45.0,   11932.361110,
                    50.0,   11909.690876,
                    55.0,   11885.943550,
                    60.0,   11861.085545,
                    65.0,   11835.082757,
                    70.0,   11807.900567,
                    75.0,   11779.503841,
                    80.0,   11749.856929,
                    85.0,   11718.923663,
                    90.0,   11686.667364,
                    95.0,   11653.050832,
                   100.0,   11618.036356,
# ... 79 like lines cut
                   500.0,       0.0,              ),
         PROL_DROITE='LINEAIRE',   PROL_GAUCHE='LINEAIRE'
      )

CONDUC=DEFI_FONCTION(    NOM_PARA='TEMP',  NOM_RESU='LAMBDA',
                                VALE=(    0.0,    40.0,
                                       1000.0,    40.0, ),
               PROL_DROITE='LINEAIRE',    PROL_GAUCHE='LINEAIRE' )

ENTHAL=DEFI_FONCTION(    NOM_PARA='TEMP',  NOM_RESU='CP',
                                VALE=(    0.0,      0.0,
                                       1000.0,      1000.0, ),
               PROL_DROITE='LINEAIRE',    PROL_GAUCHE='LINEAIRE' )

MATER=DEFI_MATERIAU( THER_NL=_F(  LAMBDA = CONDUC,
                                  BETA = ENTHAL) )

#
# AFFECTATIONS: MATERIAU, MODELE, CHARGEMENT ----------------------
#


CHMAT=AFFE_MATERIAU(  MAILLAGE=MAIL,
                AFFE=_F(  TOUT = 'OUI', MATER = MATER) )

MOTH=AFFE_MODELE(  MAILLAGE=MAIL,
                      AFFE=_F( TOUT = 'OUI', MODELISATION = 'AXIS',
                                      PHENOMENE = 'THERMIQUE'))

CHARGE=AFFE_CHAR_THER_F(MODELE=MOTH,
             FLUX_NL=_F( GROUP_MA = 'SURF_INT',  FLUN = RAYO),
             ECHANGE=_F( GROUP_MA = 'SURF_EXT',  COEF_H = HE, TEMP_EXT = TEXT)
           )

#
# RESOLUTION ------------------------------------------------------
#


TEMPE=THER_NON_LINE(       MODELE=MOTH,
               ETAT_INIT=_F(    STATIONNAIRE = 'OUI'),
               CHAM_MATER=CHMAT,
                    EXCIT=_F(  CHARGE = CHARGE)
             )

#
# ANALYSE DES RESULTATS -------------------------------------------
#


TEST_RESU(RESU=(

_F( RESULTAT = TEMPE, INST=0., NOM_CHAM='TEMP', NOEUD = 'N1',
NOM_CMP = 'TEMP', VALE = 91.77,  PRECISION = 1.E-4),
_F( RESULTAT = TEMPE, INST=0., NOM_CHAM='TEMP', NOEUD = 'N3',
NOM_CMP = 'TEMP', VALE = 91.77,  PRECISION = 1.E-4),
_F( RESULTAT = TEMPE, INST=0., NOM_CHAM='TEMP', NOEUD = 'N12',
NOM_CMP = 'TEMP', VALE = 91.77,  PRECISION = 1.E-4),
_F( RESULTAT = TEMPE, INST=0., NOM_CHAM='TEMP', NOEUD = 'N20',
NOM_CMP = 'TEMP', VALE = 91.77,  PRECISION = 1.E-4),
_F( RESULTAT = TEMPE, INST=0., NOM_CHAM='TEMP', NOEUD = 'N30',
NOM_CMP = 'TEMP', VALE = 91.77,  PRECISION = 1.E-4),
_F( RESULTAT = TEMPE, INST=0., NOM_CHAM='TEMP', NOEUD = 'N41',
NOM_CMP = 'TEMP', VALE = 91.77,  PRECISION = 1.E-4),
_F( RESULTAT = TEMPE, INST=0., NOM_CHAM='TEMP', NOEUD = 'N47',
NOM_CMP = 'TEMP', VALE = 91.77,  PRECISION = 1.E-4),
_F( RESULTAT = TEMPE, INST=0., NOM_CHAM='TEMP', NOEUD = 'N56',
NOM_CMP = 'TEMP', VALE = 91.77,  PRECISION = 1.E-4),
_F( RESULTAT = TEMPE, INST=0., NOM_CHAM='TEMP', NOEUD = 'N57',
NOM_CMP = 'TEMP', VALE = 91.77,  PRECISION = 1.E-4),
_F( RESULTAT = TEMPE, INST=0., NOM_CHAM='TEMP', NOEUD = 'N16',
NOM_CMP = 'TEMP', VALE = 71.22,  PRECISION = 1.E-4),
_F( RESULTAT = TEMPE, INST=0., NOM_CHAM='TEMP', NOEUD = 'N17',
NOM_CMP = 'TEMP', VALE = 71.22,  PRECISION = 1.E-4),
_F( RESULTAT = TEMPE, INST=0., NOM_CHAM='TEMP', NOEUD = 'N25',
NOM_CMP = 'TEMP', VALE = 71.22,  PRECISION = 1.E-4),
_F( RESULTAT = TEMPE, INST=0., NOM_CHAM='TEMP', NOEUD = 'N29',
NOM_CMP = 'TEMP', VALE = 71.22,  PRECISION = 1.E-4),
_F( RESULTAT = TEMPE, INST=0., NOM_CHAM='TEMP', NOEUD = 'N35',
NOM_CMP = 'TEMP', VALE = 71.22,  PRECISION = 1.E-4),
_F( RESULTAT = TEMPE, INST=0., NOM_CHAM='TEMP', NOEUD = 'N42',
NOM_CMP = 'TEMP', VALE = 71.22,  PRECISION = 1.E-4),
_F( RESULTAT = TEMPE, INST=0., NOM_CHAM='TEMP', NOEUD = 'N55',
NOM_CMP = 'TEMP', VALE = 71.22,  PRECISION = 1.E-4),
_F( RESULTAT = TEMPE, INST=0., NOM_CHAM='TEMP', NOEUD = 'N68',
NOM_CMP = 'TEMP', VALE = 71.22,  PRECISION = 1.E-4),
_F( RESULTAT = TEMPE, INST=0., NOM_CHAM='TEMP', NOEUD = 'N72',
NOM_CMP = 'TEMP', VALE = 71.22,  PRECISION = 1.E-4))
    )

#
TEMPE=CALC_ELEM(reuse=TEMPE,
                RESULTAT=TEMPE,
                OPTION='FLUX_ELNO_TEMP',

                );

TEST_RESU(RESU=(

   _F( RESULTAT = TEMPE, INST=0., NOM_CHAM='FLUX_ELNO_TEMP',
   MAILLE = 'M8', NOEUD = 'N1', NOM_CMP = 'FLUX',
   VALE = 11675.,  PRECISION = 1.E-2),
   _F( RESULTAT = TEMPE, INST=0., NOM_CHAM='FLUX_ELNO_TEMP',
   MAILLE = 'M2', NOEUD = 'N16', NOM_CMP = 'FLUX',
   VALE = 6838.,  PRECISION = 1.E-2))
          )

FIN()
#
#
#
#
#
#
#
