# MODIF  DATE 17/01/2012   AUTEUR SELLENET N.SELLENET 
# TITRE CHOC THERMIQUE SUR UN MUR INFINI HEXA20
#            CONFIGURATION MANAGEMENT OF EDF VERSION
# ======================================================================
# COPYRIGHT (C) 1991 - 2012  EDF R&D                  WWW.CODE-ASTER.ORG
# THIS PROGRAM IS FREE SOFTWARE; YOU CAN REDISTRIBUTE IT AND/OR MODIFY
# IT UNDER THE TERMS OF THE GNU GENERAL PUBLIC LICENSE AS PUBLISHED BY
# THE FREE SOFTWARE FOUNDATION; EITHER VERSION 2 OF THE LICENSE, OR
# (AT YOUR OPTION) ANY LATER VERSION.
#
# THIS PROGRAM IS DISTRIBUTED IN THE HOPE THAT IT WILL BE USEFUL, BUT
# WITHOUT ANY WARRANTY; WITHOUT EVEN THE IMPLIED WARRANTY OF
# MERCHANTABILITY OR FITNESS FOR A PARTICULAR PURPOSE. SEE THE GNU
# GENERAL PUBLIC LICENSE FOR MORE DETAILS.
#
# YOU SHOULD HAVE RECEIVED A COPY OF THE GNU GENERAL PUBLIC LICENSE
# ALONG WITH THIS PROGRAM; IF NOT, WRITE TO EDF R&D CODE_ASTER,
#    1 AVENUE DU GENERAL DE GAULLE, 92141 CLAMART CEDEX, FRANCE.
# ======================================================================
#CAS_TEST__: TTLL01D
# CAS TEST TTLL01D (MUR INFINI EN 20 HEXA20)
#

DEBUT(CODE=_F(NOM='TTLL01D',NIV_PUB_WEB='INTERNET'),DEBUG=_F(SDVERI='OUI'))

# PRE_GIBI();


TIMPVAR=DEFI_FONCTION(
       NOM_RESU='TEMP',  NOM_PARA='INST',
       VALE=(0.0,       0.0,
            1.0E-3,  100.0,
            100.,    100.0,   )
      )

ACIER=DEFI_MATERIAU( THER=_F(  LAMBDA = 1.0, RHO_CP = 1.0))

MAIL=LIRE_MAILLAGE(FORMAT='MED', )

CHMAT=AFFE_MATERIAU(  MAILLAGE=MAIL,
                AFFE=_F(  TOUT = 'OUI', MATER = ACIER) )

MOTH=AFFE_MODELE(  MAILLAGE=MAIL,
                      AFFE=_F( TOUT = 'OUI', MODELISATION = '3D',
                                      PHENOMENE = 'THERMIQUE'))

CHTH=AFFE_CHAR_THER_F(MODELE=MOTH,
          TEMP_IMPO=_F( GROUP_NO = 'FTIMP', TEMP = TIMPVAR)
         )

LR8=DEFI_LIST_REEL(        DEBUT=0.,INTERVALLE=(
       _F(    JUSQU_A = 1.E-3, NOMBRE = 10),
       _F(    JUSQU_A = 1.E-2, NOMBRE = 9),
       _F(    JUSQU_A = 1.E-1, NOMBRE = 9),
       _F(    JUSQU_A = 1.E0,  NOMBRE = 9),
       _F(    JUSQU_A = 2.0,   NOMBRE = 10))
                       )

TEMPE=THER_LINEAIRE(        MODELE=MOTH,
           ETAT_INIT=_F( STATIONNAIRE = 'OUI'),
          INCREMENT=_F( LIST_INST = LR8),
             CHAM_MATER=CHMAT, EXCIT=_F( CHARGE = CHTH)
             )

TEMP_1=CREA_CHAMP(  OPERATION='EXTR', TYPE_CHAM='NOEU_TEMP_R',
NOM_CHAM='TEMP', RESULTAT=TEMPE,
            INST=0.1 )

TEMP_2=CREA_CHAMP(  OPERATION='EXTR', TYPE_CHAM='NOEU_TEMP_R',
NOM_CHAM='TEMP', RESULTAT=TEMPE,
            INST=0.2 )

TEMP_3=CREA_CHAMP(  OPERATION='EXTR', TYPE_CHAM='NOEU_TEMP_R',
NOM_CHAM='TEMP', RESULTAT=TEMPE,
            INST=0.7 )

TEMP_4=CREA_CHAMP(  OPERATION='EXTR', TYPE_CHAM='NOEU_TEMP_R',
NOM_CHAM='TEMP', RESULTAT=TEMPE,
            INST=2.0 )

TEST_RESU(CHAM_NO=(
   # VALEURS DE REFERENCE:
  _F( CHAM_GD = TEMP_1, NOEUD = 'N57',  NOM_CMP = 'TEMP',
                                    VALE = 65.48, PRECISION = 1.E-2),
  _F( CHAM_GD = TEMP_2, NOEUD = 'N57',  NOM_CMP = 'TEMP',
                                    VALE = 75.58, PRECISION = 1.E-2),
  _F( CHAM_GD = TEMP_3, NOEUD = 'N57',  NOM_CMP = 'TEMP',
                                    VALE = 93.01, PRECISION = 1.E-2),
  _F( CHAM_GD = TEMP_4, NOEUD = 'N57',  NOM_CMP = 'TEMP',
                                    VALE = 99.72, PRECISION = 1.E-2),

  _F( CHAM_GD = TEMP_1, NOEUD = 'N201', NOM_CMP = 'TEMP',
                                    VALE = 8.09, PRECISION = 2.E-2),
  _F( CHAM_GD = TEMP_2, NOEUD = 'N201', NOM_CMP = 'TEMP',
                                    VALE = 26.37, PRECISION = 3.E-2),
  _F( CHAM_GD = TEMP_3, NOEUD = 'N201', NOM_CMP = 'TEMP',
                                    VALE = 78.47, PRECISION = 1.E-2),
  _F( CHAM_GD = TEMP_4, NOEUD = 'N201', NOM_CMP = 'TEMP',
                                    VALE = 99.13, PRECISION = 1.E-2))
    )

FIN()
#
