# ======================================================================
# COPYRIGHT (C) 1991 - 2016  EDF R&D                  WWW.CODE-ASTER.ORG
# THIS PROGRAM IS FREE SOFTWARE; YOU CAN REDISTRIBUTE IT AND/OR MODIFY
# IT UNDER THE TERMS OF THE GNU GENERAL PUBLIC LICENSE AS PUBLISHED BY
# THE FREE SOFTWARE FOUNDATION; EITHER VERSION 2 OF THE LICENSE, OR
# (AT YOUR OPTION) ANY LATER VERSION.
#
# THIS PROGRAM IS DISTRIBUTED IN THE HOPE THAT IT WILL BE USEFUL, BUT
# WITHOUT ANY WARRANTY; WITHOUT EVEN THE IMPLIED WARRANTY OF
# MERCHANTABILITY OR FITNESS FOR A PARTICULAR PURPOSE. SEE THE GNU
# GENERAL PUBLIC LICENSE FOR MORE DETAILS.
#
# YOU SHOULD HAVE RECEIVED A COPY OF THE GNU GENERAL PUBLIC LICENSE
# ALONG WITH THIS PROGRAM; IF NOT, WRITE TO EDF R&D CODE_ASTER,
#    1 AVENUE DU GENERAL DE GAULLE, 92141 CLAMART CEDEX, FRANCE.
# ======================================================================
#       LE MATERIAU UTILISE EST HETEROGENE (MOT CLE THER_COQUE)
#CAS_TEST__: TTLL01M
# CAS TEST TTLL01M
#
#  CAS 2D AVEC CHOC VERITABLE POUR TESTER TEMP_INI.
#
#

DEBUT(CODE=_F(NIV_PUB_WEB='INTERNET'),DEBUG=_F(SDVERI='OUI'))

#  TIMPVAR=DEFI_CONSTANTE (
#      NOM_RESU: 'TEMP'   VALE: 100.0D0 );


TIMPVAR=DEFI_FONCTION(
              NOM_RESU='TEMP',    NOM_PARA='INST',
              VALE=(0.0E0,    0.0E0,
                    1.0E-3, 100.0E0,
                    100.,   100.0E0,)
                         )

ACIER1=DEFI_MATERIAU( THER=_F(  LAMBDA = 1.0, RHO_CP = 1.0))

#
# DEFINITION DU MATERIAU HOMOGENEISE ACIER ANALOGUE AU MATERIAU
# ISOTROPE ACIER1.
# LES COEFFICIENTS DE L'ACIER ONT ETE CALCULES EN UTILISANT DES
# POLYNOMES DE LAGRANGE .
#

ACIER=DEFI_MATERIAU( THER_COQUE=_F(
   COND_LMM = 0.533333333,     COND_TMM = 0.533333333,
   COND_LMP = 0.0666666667,    COND_TMP = 0.0666666667,
   COND_LPP = 0.1333333333,    COND_TPP = 0.1333333333,
   COND_LSI = -0.033333333,    COND_TSI = -0.0333333333,
   COND_NMM = 5.333333333,    COND_NMP = -2.6666666667,
   COND_NPP = 2.333333333,    COND_NSI = 0.3333333333,
   CMAS_MM = 0.533333333,    CMAS_MP = 0.06666666667,
   CMAS_PP = 0.1333333333,   CMAS_SI = -0.03333333333)
                         )

MAIL=LIRE_MAILLAGE(FORMAT='MED', )

MAIL=DEFI_GROUP( reuse=MAIL,   MAILLAGE=MAIL,
  CREA_GROUP_MA=_F(  NOM = 'TOUT', TOUT = 'OUI'))

CHMAT=AFFE_MATERIAU(  MAILLAGE=MAIL,
                AFFE=_F(  TOUT = 'OUI', MATER = ACIER) )

MOTH=AFFE_MODELE(  MAILLAGE=MAIL,
                      AFFE=_F( TOUT = 'OUI', MODELISATION = 'COQUE',
                                      PHENOMENE = 'THERMIQUE'))

#

CARA=AFFE_CARA_ELEM(  MODELE=MOTH,
                            COQUE=_F(
       GROUP_MA = 'TOUT',

                                  EPAIS = 1.,
                                  ANGL_REP = (30.,0.,)) )

TEMP0=CREA_CHAMP( OPERATION='AFFE', TYPE_CHAM='NOEU_TEMP_R',
MAILLAGE=MAIL,
                   AFFE=_F(   TOUT = 'OUI',
                            NOM_CMP=('TEMP_MIL','TEMP_INF','TEMP_SUP'),
                           VALE = (0.0E0,   0.0E0,     0.0E0,    ))
                       )

# ---------------------------------------------------------------------


CHTH=AFFE_CHAR_THER_F(MODELE=MOTH,
          TEMP_IMPO=_F( GROUP_NO = 'GRNM14', TEMP_MIL= TIMPVAR,
                                       TEMP_INF = TIMPVAR,
                                       TEMP_SUP = TIMPVAR)
         )

LR8=DEFI_LIST_REEL(        DEBUT=0.,INTERVALLE=(
       _F(    JUSQU_A = 1.E-3, NOMBRE = 10),
       _F(    JUSQU_A = 1.E-2, NOMBRE = 9),
       _F(    JUSQU_A = 1.E-1, NOMBRE = 9),
       _F(    JUSQU_A = 1.E0,  NOMBRE = 9),
       _F(    JUSQU_A = 2.0,   NOMBRE = 10))
                       )

TEMPE=THER_LINEAIRE(        MODELE=MOTH,
           ETAT_INIT=_F( CHAM_NO = TEMP0),
          INCREMENT=_F( LIST_INST = LR8),
             CHAM_MATER=CHMAT, EXCIT=_F( CHARGE = CHTH),
           CARA_ELEM=CARA
             )

TEMP_1=CREA_CHAMP( OPERATION='EXTR', TYPE_CHAM='NOEU_TEMP_R',
RESULTAT=TEMPE, NOM_CHAM='TEMP',
             INST=0.1 )

TEMP_2=CREA_CHAMP( OPERATION='EXTR', TYPE_CHAM='NOEU_TEMP_R',
RESULTAT=TEMPE, NOM_CHAM='TEMP',
             INST=0.2 )

TEMP_3=CREA_CHAMP( OPERATION='EXTR', TYPE_CHAM='NOEU_TEMP_R',
RESULTAT=TEMPE, NOM_CHAM='TEMP',
             INST=0.7 )

TEMP_4=CREA_CHAMP( OPERATION='EXTR', TYPE_CHAM='NOEU_TEMP_R',
RESULTAT=TEMPE, NOM_CHAM='TEMP',
             INST=2.0 )

TEST_RESU(CHAM_NO=(_F(NOEUD='N9',
                      NOM_CMP='TEMP_MIL',
                      PRECISION=5.E-3,
                      CHAM_GD=TEMP_1,
                      VALE_CALC=65.294443616,
                      VALE_REFE=65.48,
                      REFERENCE='ANALYTIQUE',),
                   _F(NOEUD='N9',
                      NOM_CMP='TEMP_MIL',
                      PRECISION=5.E-3,
                      CHAM_GD=TEMP_2,
                      VALE_CALC=75.814296655,
                      VALE_REFE=75.58,
                      REFERENCE='ANALYTIQUE',),
                   _F(NOEUD='N9',
                      NOM_CMP='TEMP_MIL',
                      PRECISION=5.E-3,
                      CHAM_GD=TEMP_3,
                      VALE_CALC=92.866910037,
                      VALE_REFE=93.01,
                      REFERENCE='ANALYTIQUE',),
                   _F(NOEUD='N9',
                      NOM_CMP='TEMP_MIL',
                      PRECISION=5.E-3,
                      CHAM_GD=TEMP_4,
                      VALE_CALC=99.700018040,
                      VALE_REFE=99.72,
                      REFERENCE='ANALYTIQUE',),
                   _F(NOEUD='N33',
                      NOM_CMP='TEMP_MIL',
                      PRECISION=1.E-2,
                      CHAM_GD=TEMP_1,
                      VALE_CALC=8.035652445,
                      VALE_REFE=8.09,
                      REFERENCE='ANALYTIQUE',),
                   _F(NOEUD='N33',
                      NOM_CMP='TEMP_MIL',
                      PRECISION=0.025,
                      CHAM_GD=TEMP_2,
                      VALE_CALC=25.789700814,
                      VALE_REFE=26.37,
                      REFERENCE='ANALYTIQUE',),
                   _F(NOEUD='N33',
                      NOM_CMP='TEMP_MIL',
                      PRECISION=1.E-2,
                      CHAM_GD=TEMP_3,
                      VALE_CALC=78.047045794,
                      VALE_REFE=78.47,
                      REFERENCE='ANALYTIQUE',),
                   _F(NOEUD='N33',
                      NOM_CMP='TEMP_MIL',
                      PRECISION=5.E-3,
                      CHAM_GD=TEMP_4,
                      VALE_CALC=99.076750401,
                      VALE_REFE=99.13,
                      REFERENCE='ANALYTIQUE',),
                   _F(NOEUD='N9',
                      NOM_CMP='TEMP_MIL',
                      PRECISION=2.E-3,
                      CHAM_GD=TEMP_1,
                      VALE_CALC=65.294443616,
                      VALE_REFE=65.37,
                      REFERENCE='ANALYTIQUE',),
                   ),
          )

FIN()
#
