# MODIF  DATE 30/07/2012   AUTEUR LEFEBVRE J-P.LEFEBVRE 
# TITRE TRANSFERT THERMIQUE AVEC GENERATION DE CHALEUR INTERNE
# ttll303a.para = tps_job 60 mem_job 256Mo ncpus 1 liste_test V
#            CONFIGURATION MANAGEMENT OF EDF VERSION
# ======================================================================
# COPYRIGHT (C) 1991 - 2012  EDF R&D                  WWW.CODE-ASTER.ORG
# THIS PROGRAM IS FREE SOFTWARE; YOU CAN REDISTRIBUTE IT AND/OR MODIFY
# IT UNDER THE TERMS OF THE GNU GENERAL PUBLIC LICENSE AS PUBLISHED BY
# THE FREE SOFTWARE FOUNDATION; EITHER VERSION 2 OF THE LICENSE, OR   
# (AT YOUR OPTION) ANY LATER VERSION.                                 
#
# THIS PROGRAM IS DISTRIBUTED IN THE HOPE THAT IT WILL BE USEFUL, BUT 
# WITHOUT ANY WARRANTY; WITHOUT EVEN THE IMPLIED WARRANTY OF          
# MERCHANTABILITY OR FITNESS FOR A PARTICULAR PURPOSE. SEE THE GNU    
# GENERAL PUBLIC LICENSE FOR MORE DETAILS.                            
#
# YOU SHOULD HAVE RECEIVED A COPY OF THE GNU GENERAL PUBLIC LICENSE   
# ALONG WITH THIS PROGRAM; IF NOT, WRITE TO EDF R&D CODE_ASTER,       
#    1 AVENUE DU GENERAL DE GAULLE, 92141 CLAMART CEDEX, FRANCE.      
# ======================================================================
#       DANS UNE BARRE
# MAILLE  : TRIA6, QUAD8
#


DEBUT(CODE=_F( NOM = 'TTLL303A',NIV_PUB_WEB='INTERNET')
      )

#
# LECTURE DU MAILLAGE ----------------------------------------------
#

MAIL=LIRE_MAILLAGE(FORMAT='MED', )

#
# DEFINITION DES CHARGEMENTS ET DU MATERIAU ------------------------
#

TEMP_IMP=DEFI_CONSTANTE(   VALE=0.E0)

SOURCE=DEFI_CONSTANTE(   VALE=1.E6)

#

MATE=DEFI_MATERIAU( THER=_F(  LAMBDA = 100.E0,
                                   RHO_CP = 7000.E0))

#
# AFFECTATIONS: MATERIAU, MODELE, CHARGEMENT ----------------------
#

CHMAT=AFFE_MATERIAU(  MAILLAGE=MAIL,
                 AFFE=_F(  TOUT = 'OUI', MATER = MATE) )

MOTH=AFFE_MODELE(  MAILLAGE=MAIL,
               AFFE=_F( TOUT = 'OUI', MODELISATION = 'PLAN',
                                   PHENOMENE = 'THERMIQUE'))

CHTH=AFFE_CHAR_THER_F(MODELE=MOTH,
          TEMP_IMPO=_F( GROUP_NO = 'NOE_IMP', TEMP = TEMP_IMP),
             SOURCE=_F( TOUT = 'OUI', SOUR = SOURCE)
             )

#
# DEFINITION DE LA STATEGIE DE CALCUL -----------------------------
#

LR8=DEFI_LIST_REEL(        DEBUT=0.,
                   INTERVALLE=_F(    JUSQU_A = 0.50,    NOMBRE = 50)
                  )

#
# RESOLUTION ------------------------------------------------------
#

TEMPE=THER_LINEAIRE(        MODELE=MOTH,
                      ETAT_INIT=_F( VALE = 0.E0),
                      INCREMENT=_F( LIST_INST = LR8),
                       CHAM_MATER=CHMAT,
                          EXCIT=_F( CHARGE = CHTH)
               )

#
# ANALYSE DES RESULTATS -------------------------------------------
#
TEMP_025=CREA_CHAMP(  OPERATION='EXTR', TYPE_CHAM='NOEU_TEMP_R',
NOM_CHAM='TEMP', RESULTAT=TEMPE,
            INST=0.25 )

TEMP_050=CREA_CHAMP(  OPERATION='EXTR', TYPE_CHAM='NOEU_TEMP_R',
NOM_CHAM='TEMP', RESULTAT=TEMPE,
            INST=0.50 )

TEST_RESU(CHAM_NO=(
#
# ------ X = 0, T=0.25 S
#
# ------   ERREUR RELATIVE
#
_F( CHAM_GD = TEMP_025, NOEUD = 'N19',  NOM_CMP = 'TEMP', VALE = 28.62, PRECISION = 1.E-2),
_F( CHAM_GD = TEMP_025, NOEUD = 'N16',  NOM_CMP = 'TEMP', VALE = 28.62, PRECISION = 1.E-2),
_F( CHAM_GD = TEMP_025, NOEUD = 'N13',  NOM_CMP = 'TEMP', VALE = 28.62, PRECISION = 1.E-2),
_F( CHAM_GD = TEMP_025, NOEUD = 'N10',  NOM_CMP = 'TEMP', VALE = 28.62, PRECISION = 1.E-2),
_F( CHAM_GD = TEMP_025, NOEUD = 'N7',   NOM_CMP = 'TEMP', VALE = 28.62, PRECISION = 1.E-2),
_F( CHAM_GD = TEMP_025, NOEUD = 'N4',   NOM_CMP = 'TEMP', VALE = 28.62, PRECISION = 1.E-2),
_F( CHAM_GD = TEMP_025, NOEUD = 'N1',   NOM_CMP = 'TEMP', VALE = 28.62, PRECISION = 1.E-2),
#
# ------   ERREUR ABSOLUE
#
_F( CHAM_GD = TEMP_025, NOEUD = 'N19', NOM_CMP = 'TEMP', VALE = 28.62, PRECISION = 5.E-2,
                        CRITERE = 'ABSOLU'),
_F( CHAM_GD = TEMP_025, NOEUD = 'N16', NOM_CMP = 'TEMP', VALE = 28.62, PRECISION = 5.E-2,
                        CRITERE = 'ABSOLU'),
_F( CHAM_GD = TEMP_025, NOEUD = 'N13', NOM_CMP = 'TEMP', VALE = 28.62, PRECISION = 5.E-2,
                        CRITERE = 'ABSOLU'),
_F( CHAM_GD = TEMP_025, NOEUD = 'N10', NOM_CMP = 'TEMP', VALE = 28.62, PRECISION = 5.E-2,
                        CRITERE = 'ABSOLU'),
_F( CHAM_GD = TEMP_025, NOEUD = 'N7',  NOM_CMP = 'TEMP', VALE = 28.62, PRECISION = 5.E-2,
                        CRITERE = 'ABSOLU'),
_F( CHAM_GD = TEMP_025, NOEUD = 'N4',  NOM_CMP = 'TEMP', VALE = 28.62, PRECISION = 5.E-2,
                        CRITERE = 'ABSOLU'),
_F( CHAM_GD = TEMP_025, NOEUD = 'N1',  NOM_CMP = 'TEMP', VALE = 28.62, PRECISION = 5.E-2,
                        CRITERE = 'ABSOLU'),
#
# ------ X = 0.05, T=0.25 S
#
# ------   ERREUR RELATIVE
#
_F( CHAM_GD = TEMP_025, NOEUD = 'N163', NOM_CMP = 'TEMP', VALE = 22.38, PRECISION = 1.E-2),
_F( CHAM_GD = TEMP_025, NOEUD = 'N161', NOM_CMP = 'TEMP', VALE = 22.38, PRECISION = 1.E-2),
_F( CHAM_GD = TEMP_025, NOEUD = 'N158', NOM_CMP = 'TEMP', VALE = 22.38, PRECISION = 1.E-2),
_F( CHAM_GD = TEMP_025, NOEUD = 'N156', NOM_CMP = 'TEMP', VALE = 22.38, PRECISION = 1.E-2),
_F( CHAM_GD = TEMP_025, NOEUD = 'N154', NOM_CMP = 'TEMP', VALE = 22.38, PRECISION = 1.E-2),
_F( CHAM_GD = TEMP_025, NOEUD = 'N152', NOM_CMP = 'TEMP', VALE = 22.38, PRECISION = 1.E-2),
_F( CHAM_GD = TEMP_025, NOEUD = 'N151', NOM_CMP = 'TEMP', VALE = 22.38, PRECISION = 1.E-2),
#
# ------   ERREUR ABSOLUE
#
_F( CHAM_GD = TEMP_025, NOEUD = 'N163',  NOM_CMP = 'TEMP', VALE = 22.38, PRECISION = 5.E-2,
                          CRITERE = 'ABSOLU'),
_F( CHAM_GD = TEMP_025, NOEUD = 'N161',  NOM_CMP = 'TEMP', VALE = 22.38, PRECISION = 5.E-2,
                          CRITERE = 'ABSOLU'),
_F( CHAM_GD = TEMP_025, NOEUD = 'N158',  NOM_CMP = 'TEMP', VALE = 22.38, PRECISION = 5.E-2,
                          CRITERE = 'ABSOLU'),
_F( CHAM_GD = TEMP_025, NOEUD = 'N156',  NOM_CMP = 'TEMP', VALE = 22.38, PRECISION = 5.E-2,
                          CRITERE = 'ABSOLU'),
_F( CHAM_GD = TEMP_025, NOEUD = 'N154',  NOM_CMP = 'TEMP', VALE = 22.38, PRECISION = 5.E-2,
                          CRITERE = 'ABSOLU'),
_F( CHAM_GD = TEMP_025, NOEUD = 'N152',  NOM_CMP = 'TEMP', VALE = 22.38, PRECISION = 5.E-2,
                          CRITERE = 'ABSOLU'),
_F( CHAM_GD = TEMP_025, NOEUD = 'N151',  NOM_CMP = 'TEMP', VALE = 22.38, PRECISION = 5.E-2,
                          CRITERE = 'ABSOLU'),
#
# ------ X = 0, T=0.5 S
#
# ------   ERREUR RELATIVE
#
_F( CHAM_GD = TEMP_050, NOEUD = 'N19',  NOM_CMP = 'TEMP', VALE = 41.14, PRECISION = 1.E-2),
_F( CHAM_GD = TEMP_050, NOEUD = 'N16',  NOM_CMP = 'TEMP', VALE = 41.14, PRECISION = 1.E-2),
_F( CHAM_GD = TEMP_050, NOEUD = 'N13',  NOM_CMP = 'TEMP', VALE = 41.14, PRECISION = 1.E-2),
_F( CHAM_GD = TEMP_050, NOEUD = 'N10',  NOM_CMP = 'TEMP', VALE = 41.14, PRECISION = 1.E-2),
_F( CHAM_GD = TEMP_050, NOEUD = 'N7',   NOM_CMP = 'TEMP', VALE = 41.14, PRECISION = 1.E-2),
_F( CHAM_GD = TEMP_050, NOEUD = 'N4',   NOM_CMP = 'TEMP', VALE = 41.14, PRECISION = 1.E-2),
_F( CHAM_GD = TEMP_050, NOEUD = 'N1',   NOM_CMP = 'TEMP', VALE = 41.14, PRECISION = 1.E-2),
#
# ------   ERREUR ABSOLUE
#
_F( CHAM_GD = TEMP_050, NOEUD = 'N19', NOM_CMP = 'TEMP', VALE = 41.14, PRECISION = 5.E-2,
                        CRITERE = 'ABSOLU'),
_F( CHAM_GD = TEMP_050, NOEUD = 'N16', NOM_CMP = 'TEMP', VALE = 41.14, PRECISION = 5.E-2,
                        CRITERE = 'ABSOLU'),
_F( CHAM_GD = TEMP_050, NOEUD = 'N13', NOM_CMP = 'TEMP', VALE = 41.14, PRECISION = 5.E-2,
                        CRITERE = 'ABSOLU'),
_F( CHAM_GD = TEMP_050, NOEUD = 'N10', NOM_CMP = 'TEMP', VALE = 41.14, PRECISION = 5.E-2,
                        CRITERE = 'ABSOLU'),
_F( CHAM_GD = TEMP_050, NOEUD = 'N7',  NOM_CMP = 'TEMP', VALE = 41.14, PRECISION = 5.E-2,
                        CRITERE = 'ABSOLU'),
_F( CHAM_GD = TEMP_050, NOEUD = 'N4',  NOM_CMP = 'TEMP', VALE = 41.14, PRECISION = 5.E-2,
                        CRITERE = 'ABSOLU'),
_F( CHAM_GD = TEMP_050, NOEUD = 'N1',  NOM_CMP = 'TEMP', VALE = 41.14, PRECISION = 5.E-2,
                        CRITERE = 'ABSOLU'),
#
# ------ X = 0.05, T=025 S
#
# ------   ERREUR RELATIVE
#
_F( CHAM_GD = TEMP_050, NOEUD = 'N163', NOM_CMP = 'TEMP', VALE = 31.24, PRECISION = 1.E-2),
_F( CHAM_GD = TEMP_050, NOEUD = 'N161', NOM_CMP = 'TEMP', VALE = 31.24, PRECISION = 1.E-2),
_F( CHAM_GD = TEMP_050, NOEUD = 'N158', NOM_CMP = 'TEMP', VALE = 31.24, PRECISION = 1.E-2),
_F( CHAM_GD = TEMP_050, NOEUD = 'N156', NOM_CMP = 'TEMP', VALE = 31.24, PRECISION = 1.E-2),
_F( CHAM_GD = TEMP_050, NOEUD = 'N154', NOM_CMP = 'TEMP', VALE = 31.24, PRECISION = 1.E-2),
_F( CHAM_GD = TEMP_050, NOEUD = 'N152', NOM_CMP = 'TEMP', VALE = 31.24, PRECISION = 1.E-2),
_F( CHAM_GD = TEMP_050, NOEUD = 'N151', NOM_CMP = 'TEMP', VALE = 31.24, PRECISION = 1.E-2),
#
# ------   ERREUR ABSOLUE
#
_F( CHAM_GD = TEMP_050, NOEUD = 'N163',  NOM_CMP = 'TEMP', VALE = 31.24, PRECISION = 5.E-2,
                          CRITERE = 'ABSOLU'),
_F( CHAM_GD = TEMP_050, NOEUD = 'N161',  NOM_CMP = 'TEMP', VALE = 31.24, PRECISION = 5.E-2,
                          CRITERE = 'ABSOLU'),
_F( CHAM_GD = TEMP_050, NOEUD = 'N158',  NOM_CMP = 'TEMP', VALE = 31.24, PRECISION = 5.E-2,
                          CRITERE = 'ABSOLU'),
_F( CHAM_GD = TEMP_050, NOEUD = 'N156',  NOM_CMP = 'TEMP', VALE = 31.24, PRECISION = 5.E-2,
                          CRITERE = 'ABSOLU'),
_F( CHAM_GD = TEMP_050, NOEUD = 'N154',  NOM_CMP = 'TEMP', VALE = 31.24, PRECISION = 5.E-2,
                          CRITERE = 'ABSOLU'),
_F( CHAM_GD = TEMP_050, NOEUD = 'N152',  NOM_CMP = 'TEMP', VALE = 31.24, PRECISION = 5.E-2,
                          CRITERE = 'ABSOLU'),
_F( CHAM_GD = TEMP_050, NOEUD = 'N151',  NOM_CMP = 'TEMP', VALE = 31.24, PRECISION = 5.E-2,
                          CRITERE = 'ABSOLU'))
    )

FIN()
#
#
#
#
#
#
#
#
#
#
