# TITRE TRANSFERT THERMIQUE AVEC GENERATION DE CHALEUR INTERNE
#            CONFIGURATION MANAGEMENT OF EDF VERSION
# ======================================================================
# COPYRIGHT (C) 1991 - 2012  EDF R&D                  WWW.CODE-ASTER.ORG
# THIS PROGRAM IS FREE SOFTWARE; YOU CAN REDISTRIBUTE IT AND/OR MODIFY
# IT UNDER THE TERMS OF THE GNU GENERAL PUBLIC LICENSE AS PUBLISHED BY
# THE FREE SOFTWARE FOUNDATION; EITHER VERSION 2 OF THE LICENSE, OR   
# (AT YOUR OPTION) ANY LATER VERSION.                                 
#
# THIS PROGRAM IS DISTRIBUTED IN THE HOPE THAT IT WILL BE USEFUL, BUT 
# WITHOUT ANY WARRANTY; WITHOUT EVEN THE IMPLIED WARRANTY OF          
# MERCHANTABILITY OR FITNESS FOR A PARTICULAR PURPOSE. SEE THE GNU    
# GENERAL PUBLIC LICENSE FOR MORE DETAILS.                            
#
# YOU SHOULD HAVE RECEIVED A COPY OF THE GNU GENERAL PUBLIC LICENSE   
# ALONG WITH THIS PROGRAM; IF NOT, WRITE TO EDF R&D CODE_ASTER,       
#    1 AVENUE DU GENERAL DE GAULLE, 92141 CLAMART CEDEX, FRANCE.      
# ======================================================================
#       DANS UNE BARRE
# MAILLE  : TRIA6, QUAD8
#


DEBUT(CODE=_F( NOM = 'TTLL303A',NIV_PUB_WEB='INTERNET')
      )

#
# LECTURE DU MAILLAGE ----------------------------------------------
#

MAIL=LIRE_MAILLAGE(FORMAT='MED', )

#
# DEFINITION DES CHARGEMENTS ET DU MATERIAU ------------------------
#

TEMP_IMP=DEFI_CONSTANTE(   VALE=0.E0)

SOURCE=DEFI_CONSTANTE(   VALE=1.E6)

#

MATE=DEFI_MATERIAU( THER=_F(  LAMBDA = 100.E0,
                                   RHO_CP = 7000.E0))

#
# AFFECTATIONS: MATERIAU, MODELE, CHARGEMENT ----------------------
#

CHMAT=AFFE_MATERIAU(  MAILLAGE=MAIL,
                 AFFE=_F(  TOUT = 'OUI', MATER = MATE) )

MOTH=AFFE_MODELE(  MAILLAGE=MAIL,
               AFFE=_F( TOUT = 'OUI', MODELISATION = 'PLAN',
                                   PHENOMENE = 'THERMIQUE'))

CHTH=AFFE_CHAR_THER_F(MODELE=MOTH,
          TEMP_IMPO=_F( GROUP_NO = 'NOE_IMP', TEMP = TEMP_IMP),
             SOURCE=_F( TOUT = 'OUI', SOUR = SOURCE)
             )

#
# DEFINITION DE LA STATEGIE DE CALCUL -----------------------------
#

LR8=DEFI_LIST_REEL(        DEBUT=0.,
                   INTERVALLE=_F(    JUSQU_A = 0.50,    NOMBRE = 50)
                  )

#
# RESOLUTION ------------------------------------------------------
#

TEMPE=THER_LINEAIRE(        MODELE=MOTH,
                      ETAT_INIT=_F( VALE = 0.E0),
                      INCREMENT=_F( LIST_INST = LR8),
                       CHAM_MATER=CHMAT,
                          EXCIT=_F( CHARGE = CHTH)
               )

#
# ANALYSE DES RESULTATS -------------------------------------------
#
TEMP_025=CREA_CHAMP(  OPERATION='EXTR', TYPE_CHAM='NOEU_TEMP_R',
NOM_CHAM='TEMP', RESULTAT=TEMPE,
            INST=0.25 )

TEMP_050=CREA_CHAMP(  OPERATION='EXTR', TYPE_CHAM='NOEU_TEMP_R',
NOM_CHAM='TEMP', RESULTAT=TEMPE,
            INST=0.50 )

TEST_RESU(CHAM_NO=(_F(NOEUD='N19',
                      NOM_CMP='TEMP',
                      PRECISION=1.E-2,
                      CHAM_GD=TEMP_025,
                      VALE_CALC=28.578476842,
                      VALE_REFE=28.620000000000001,
                      REFERENCE='NON_DEFINI',),
                   _F(NOEUD='N16',
                      NOM_CMP='TEMP',
                      PRECISION=1.E-2,
                      CHAM_GD=TEMP_025,
                      VALE_CALC=28.578480466,
                      VALE_REFE=28.620000000000001,
                      REFERENCE='NON_DEFINI',),
                   _F(NOEUD='N13',
                      NOM_CMP='TEMP',
                      PRECISION=1.E-2,
                      CHAM_GD=TEMP_025,
                      VALE_CALC=28.578504271,
                      VALE_REFE=28.620000000000001,
                      REFERENCE='NON_DEFINI',),
                   _F(NOEUD='N10',
                      NOM_CMP='TEMP',
                      PRECISION=1.E-2,
                      CHAM_GD=TEMP_025,
                      VALE_CALC=28.578484978,
                      VALE_REFE=28.620000000000001,
                      REFERENCE='NON_DEFINI',),
                   _F(NOEUD='N7',
                      NOM_CMP='TEMP',
                      PRECISION=1.E-2,
                      CHAM_GD=TEMP_025,
                      VALE_CALC=28.578526780,
                      VALE_REFE=28.620000000000001,
                      REFERENCE='NON_DEFINI',),
                   _F(NOEUD='N4',
                      NOM_CMP='TEMP',
                      PRECISION=1.E-2,
                      CHAM_GD=TEMP_025,
                      VALE_CALC=28.578554692,
                      VALE_REFE=28.620000000000001,
                      REFERENCE='NON_DEFINI',),
                   _F(NOEUD='N1',
                      NOM_CMP='TEMP',
                      PRECISION=1.E-2,
                      CHAM_GD=TEMP_025,
                      VALE_CALC=28.578476396,
                      VALE_REFE=28.620000000000001,
                      REFERENCE='NON_DEFINI',),
                   _F(NOEUD='N19',
                      CRITERE='ABSOLU',
                      NOM_CMP='TEMP',
                      PRECISION=0.050000000000000003,
                      CHAM_GD=TEMP_025,
                      VALE_CALC=28.578476842,
                      VALE_REFE=28.620000000000001,
                      REFERENCE='NON_DEFINI',),
                   _F(NOEUD='N16',
                      CRITERE='ABSOLU',
                      NOM_CMP='TEMP',
                      PRECISION=0.050000000000000003,
                      CHAM_GD=TEMP_025,
                      VALE_CALC=28.578480466,
                      VALE_REFE=28.620000000000001,
                      REFERENCE='NON_DEFINI',),
                   _F(NOEUD='N13',
                      CRITERE='ABSOLU',
                      NOM_CMP='TEMP',
                      PRECISION=0.050000000000000003,
                      CHAM_GD=TEMP_025,
                      VALE_CALC=28.578504271,
                      VALE_REFE=28.620000000000001,
                      REFERENCE='NON_DEFINI',),
                   _F(NOEUD='N10',
                      CRITERE='ABSOLU',
                      NOM_CMP='TEMP',
                      PRECISION=0.050000000000000003,
                      CHAM_GD=TEMP_025,
                      VALE_CALC=28.578484978,
                      VALE_REFE=28.620000000000001,
                      REFERENCE='NON_DEFINI',),
                   _F(NOEUD='N7',
                      CRITERE='ABSOLU',
                      NOM_CMP='TEMP',
                      PRECISION=0.050000000000000003,
                      CHAM_GD=TEMP_025,
                      VALE_CALC=28.578526780,
                      VALE_REFE=28.620000000000001,
                      REFERENCE='NON_DEFINI',),
                   _F(NOEUD='N4',
                      CRITERE='ABSOLU',
                      NOM_CMP='TEMP',
                      PRECISION=0.050000000000000003,
                      CHAM_GD=TEMP_025,
                      VALE_CALC=28.578554692,
                      VALE_REFE=28.620000000000001,
                      REFERENCE='NON_DEFINI',),
                   _F(NOEUD='N1',
                      CRITERE='ABSOLU',
                      NOM_CMP='TEMP',
                      PRECISION=0.050000000000000003,
                      CHAM_GD=TEMP_025,
                      VALE_CALC=28.578476396,
                      VALE_REFE=28.620000000000001,
                      REFERENCE='NON_DEFINI',),
                   _F(NOEUD='N163',
                      NOM_CMP='TEMP',
                      PRECISION=1.E-2,
                      CHAM_GD=TEMP_025,
                      VALE_CALC=22.351620381,
                      VALE_REFE=22.379999999999999,
                      REFERENCE='NON_DEFINI',),
                   _F(NOEUD='N161',
                      NOM_CMP='TEMP',
                      PRECISION=1.E-2,
                      CHAM_GD=TEMP_025,
                      VALE_CALC=22.351627157,
                      VALE_REFE=22.379999999999999,
                      REFERENCE='NON_DEFINI',),
                   _F(NOEUD='N158',
                      NOM_CMP='TEMP',
                      PRECISION=1.E-2,
                      CHAM_GD=TEMP_025,
                      VALE_CALC=22.351662722,
                      VALE_REFE=22.379999999999999,
                      REFERENCE='NON_DEFINI',),
                   _F(NOEUD='N156',
                      NOM_CMP='TEMP',
                      PRECISION=1.E-2,
                      CHAM_GD=TEMP_025,
                      VALE_CALC=22.351626839,
                      VALE_REFE=22.379999999999999,
                      REFERENCE='NON_DEFINI',),
                   _F(NOEUD='N154',
                      NOM_CMP='TEMP',
                      PRECISION=1.E-2,
                      CHAM_GD=TEMP_025,
                      VALE_CALC=22.351557000,
                      VALE_REFE=22.379999999999999,
                      REFERENCE='NON_DEFINI',),
                   _F(NOEUD='N152',
                      NOM_CMP='TEMP',
                      PRECISION=1.E-2,
                      CHAM_GD=TEMP_025,
                      VALE_CALC=22.351546117,
                      VALE_REFE=22.379999999999999,
                      REFERENCE='NON_DEFINI',),
                   _F(NOEUD='N151',
                      NOM_CMP='TEMP',
                      PRECISION=1.E-2,
                      CHAM_GD=TEMP_025,
                      VALE_CALC=22.351609601,
                      VALE_REFE=22.379999999999999,
                      REFERENCE='NON_DEFINI',),
                   _F(NOEUD='N163',
                      CRITERE='ABSOLU',
                      NOM_CMP='TEMP',
                      PRECISION=0.050000000000000003,
                      CHAM_GD=TEMP_025,
                      VALE_CALC=22.351620381,
                      VALE_REFE=22.379999999999999,
                      REFERENCE='NON_DEFINI',),
                   _F(NOEUD='N161',
                      CRITERE='ABSOLU',
                      NOM_CMP='TEMP',
                      PRECISION=0.050000000000000003,
                      CHAM_GD=TEMP_025,
                      VALE_CALC=22.351627157,
                      VALE_REFE=22.379999999999999,
                      REFERENCE='NON_DEFINI',),
                   _F(NOEUD='N158',
                      CRITERE='ABSOLU',
                      NOM_CMP='TEMP',
                      PRECISION=0.050000000000000003,
                      CHAM_GD=TEMP_025,
                      VALE_CALC=22.351662722,
                      VALE_REFE=22.379999999999999,
                      REFERENCE='NON_DEFINI',),
                   _F(NOEUD='N156',
                      CRITERE='ABSOLU',
                      NOM_CMP='TEMP',
                      PRECISION=0.050000000000000003,
                      CHAM_GD=TEMP_025,
                      VALE_CALC=22.351626839,
                      VALE_REFE=22.379999999999999,
                      REFERENCE='NON_DEFINI',),
                   _F(NOEUD='N154',
                      CRITERE='ABSOLU',
                      NOM_CMP='TEMP',
                      PRECISION=0.050000000000000003,
                      CHAM_GD=TEMP_025,
                      VALE_CALC=22.351557000,
                      VALE_REFE=22.379999999999999,
                      REFERENCE='NON_DEFINI',),
                   _F(NOEUD='N152',
                      CRITERE='ABSOLU',
                      NOM_CMP='TEMP',
                      PRECISION=0.050000000000000003,
                      CHAM_GD=TEMP_025,
                      VALE_CALC=22.351546117,
                      VALE_REFE=22.379999999999999,
                      REFERENCE='NON_DEFINI',),
                   _F(NOEUD='N151',
                      CRITERE='ABSOLU',
                      NOM_CMP='TEMP',
                      PRECISION=0.050000000000000003,
                      CHAM_GD=TEMP_025,
                      VALE_CALC=22.351609601,
                      VALE_REFE=22.379999999999999,
                      REFERENCE='NON_DEFINI',),
                   _F(NOEUD='N19',
                      NOM_CMP='TEMP',
                      PRECISION=1.E-2,
                      CHAM_GD=TEMP_050,
                      VALE_CALC=41.106748376,
                      VALE_REFE=41.140000000000001,
                      REFERENCE='NON_DEFINI',),
                   _F(NOEUD='N16',
                      NOM_CMP='TEMP',
                      PRECISION=1.E-2,
                      CHAM_GD=TEMP_050,
                      VALE_CALC=41.106755332,
                      VALE_REFE=41.140000000000001,
                      REFERENCE='NON_DEFINI',),
                   _F(NOEUD='N13',
                      NOM_CMP='TEMP',
                      PRECISION=1.E-2,
                      CHAM_GD=TEMP_050,
                      VALE_CALC=41.106795930,
                      VALE_REFE=41.140000000000001,
                      REFERENCE='NON_DEFINI',),
                   _F(NOEUD='N10',
                      NOM_CMP='TEMP',
                      PRECISION=1.E-2,
                      CHAM_GD=TEMP_050,
                      VALE_CALC=41.106766800,
                      VALE_REFE=41.140000000000001,
                      REFERENCE='NON_DEFINI',),
                   _F(NOEUD='N7',
                      NOM_CMP='TEMP',
                      PRECISION=1.E-2,
                      CHAM_GD=TEMP_050,
                      VALE_CALC=41.106836761,
                      VALE_REFE=41.140000000000001,
                      REFERENCE='NON_DEFINI',),
                   _F(NOEUD='N4',
                      NOM_CMP='TEMP',
                      PRECISION=1.E-2,
                      CHAM_GD=TEMP_050,
                      VALE_CALC=41.106891970,
                      VALE_REFE=41.140000000000001,
                      REFERENCE='NON_DEFINI',),
                   _F(NOEUD='N1',
                      NOM_CMP='TEMP',
                      PRECISION=1.E-2,
                      CHAM_GD=TEMP_050,
                      VALE_CALC=41.106774807,
                      VALE_REFE=41.140000000000001,
                      REFERENCE='NON_DEFINI',),
                   _F(NOEUD='N19',
                      CRITERE='ABSOLU',
                      NOM_CMP='TEMP',
                      PRECISION=0.050000000000000003,
                      CHAM_GD=TEMP_050,
                      VALE_CALC=41.106748376,
                      VALE_REFE=41.140000000000001,
                      REFERENCE='NON_DEFINI',),
                   _F(NOEUD='N16',
                      CRITERE='ABSOLU',
                      NOM_CMP='TEMP',
                      PRECISION=0.050000000000000003,
                      CHAM_GD=TEMP_050,
                      VALE_CALC=41.106755332,
                      VALE_REFE=41.140000000000001,
                      REFERENCE='NON_DEFINI',),
                   _F(NOEUD='N13',
                      CRITERE='ABSOLU',
                      NOM_CMP='TEMP',
                      PRECISION=0.050000000000000003,
                      CHAM_GD=TEMP_050,
                      VALE_CALC=41.106795930,
                      VALE_REFE=41.140000000000001,
                      REFERENCE='NON_DEFINI',),
                   _F(NOEUD='N10',
                      CRITERE='ABSOLU',
                      NOM_CMP='TEMP',
                      PRECISION=0.050000000000000003,
                      CHAM_GD=TEMP_050,
                      VALE_CALC=41.106766800,
                      VALE_REFE=41.140000000000001,
                      REFERENCE='NON_DEFINI',),
                   _F(NOEUD='N7',
                      CRITERE='ABSOLU',
                      NOM_CMP='TEMP',
                      PRECISION=0.050000000000000003,
                      CHAM_GD=TEMP_050,
                      VALE_CALC=41.106836761,
                      VALE_REFE=41.140000000000001,
                      REFERENCE='NON_DEFINI',),
                   _F(NOEUD='N4',
                      CRITERE='ABSOLU',
                      NOM_CMP='TEMP',
                      PRECISION=0.050000000000000003,
                      CHAM_GD=TEMP_050,
                      VALE_CALC=41.106891970,
                      VALE_REFE=41.140000000000001,
                      REFERENCE='NON_DEFINI',),
                   _F(NOEUD='N1',
                      CRITERE='ABSOLU',
                      NOM_CMP='TEMP',
                      PRECISION=0.050000000000000003,
                      CHAM_GD=TEMP_050,
                      VALE_CALC=41.106774807,
                      VALE_REFE=41.140000000000001,
                      REFERENCE='NON_DEFINI',),
                   _F(NOEUD='N163',
                      NOM_CMP='TEMP',
                      PRECISION=1.E-2,
                      CHAM_GD=TEMP_050,
                      VALE_CALC=31.211528568,
                      VALE_REFE=31.239999999999998,
                      REFERENCE='NON_DEFINI',),
                   _F(NOEUD='N161',
                      NOM_CMP='TEMP',
                      PRECISION=1.E-2,
                      CHAM_GD=TEMP_050,
                      VALE_CALC=31.211538415,
                      VALE_REFE=31.239999999999998,
                      REFERENCE='NON_DEFINI',),
                   _F(NOEUD='N158',
                      NOM_CMP='TEMP',
                      PRECISION=1.E-2,
                      CHAM_GD=TEMP_050,
                      VALE_CALC=31.211587753,
                      VALE_REFE=31.239999999999998,
                      REFERENCE='NON_DEFINI',),
                   _F(NOEUD='N156',
                      NOM_CMP='TEMP',
                      PRECISION=1.E-2,
                      CHAM_GD=TEMP_050,
                      VALE_CALC=31.211541682,
                      VALE_REFE=31.239999999999998,
                      REFERENCE='NON_DEFINI',),
                   _F(NOEUD='N154',
                      NOM_CMP='TEMP',
                      PRECISION=1.E-2,
                      CHAM_GD=TEMP_050,
                      VALE_CALC=31.211446113,
                      VALE_REFE=31.239999999999998,
                      REFERENCE='NON_DEFINI',),
                   _F(NOEUD='N152',
                      NOM_CMP='TEMP',
                      PRECISION=1.E-2,
                      CHAM_GD=TEMP_050,
                      VALE_CALC=31.211434967,
                      VALE_REFE=31.239999999999998,
                      REFERENCE='NON_DEFINI',),
                   _F(NOEUD='N151',
                      NOM_CMP='TEMP',
                      PRECISION=1.E-2,
                      CHAM_GD=TEMP_050,
                      VALE_CALC=31.211543294,
                      VALE_REFE=31.239999999999998,
                      REFERENCE='NON_DEFINI',),
                   _F(NOEUD='N163',
                      CRITERE='ABSOLU',
                      NOM_CMP='TEMP',
                      PRECISION=0.050000000000000003,
                      CHAM_GD=TEMP_050,
                      VALE_CALC=31.211528568,
                      VALE_REFE=31.239999999999998,
                      REFERENCE='NON_DEFINI',),
                   _F(NOEUD='N161',
                      CRITERE='ABSOLU',
                      NOM_CMP='TEMP',
                      PRECISION=0.050000000000000003,
                      CHAM_GD=TEMP_050,
                      VALE_CALC=31.211538415,
                      VALE_REFE=31.239999999999998,
                      REFERENCE='NON_DEFINI',),
                   _F(NOEUD='N158',
                      CRITERE='ABSOLU',
                      NOM_CMP='TEMP',
                      PRECISION=0.050000000000000003,
                      CHAM_GD=TEMP_050,
                      VALE_CALC=31.211587753,
                      VALE_REFE=31.239999999999998,
                      REFERENCE='NON_DEFINI',),
                   _F(NOEUD='N156',
                      CRITERE='ABSOLU',
                      NOM_CMP='TEMP',
                      PRECISION=0.050000000000000003,
                      CHAM_GD=TEMP_050,
                      VALE_CALC=31.211541682,
                      VALE_REFE=31.239999999999998,
                      REFERENCE='NON_DEFINI',),
                   _F(NOEUD='N154',
                      CRITERE='ABSOLU',
                      NOM_CMP='TEMP',
                      PRECISION=0.050000000000000003,
                      CHAM_GD=TEMP_050,
                      VALE_CALC=31.211446113,
                      VALE_REFE=31.239999999999998,
                      REFERENCE='NON_DEFINI',),
                   _F(NOEUD='N152',
                      CRITERE='ABSOLU',
                      NOM_CMP='TEMP',
                      PRECISION=0.050000000000000003,
                      CHAM_GD=TEMP_050,
                      VALE_CALC=31.211434967,
                      VALE_REFE=31.239999999999998,
                      REFERENCE='NON_DEFINI',),
                   _F(NOEUD='N151',
                      CRITERE='ABSOLU',
                      NOM_CMP='TEMP',
                      PRECISION=0.050000000000000003,
                      CHAM_GD=TEMP_050,
                      VALE_CALC=31.211543294,
                      VALE_REFE=31.239999999999998,
                      REFERENCE='NON_DEFINI',),
                   ),
          )

FIN()
#
#
#
#
#
#
#
#
#
#
