# MODIF  DATE 07/06/2000   AUTEUR VABHHTS J.PELLET 
# TITRE TRANSFERT DE CHALEUR DANS UNE PLAQUE ORTHOTROPE :  FLUX IMPOSE
#            CONFIGURATION MANAGEMENT OF EDF VERSION
# ======================================================================
# COPYRIGHT (C) 1991 - 2001  EDF R&D                  WWW.CODE-ASTER.ORG
# THIS PROGRAM IS FREE SOFTWARE; YOU CAN REDISTRIBUTE IT AND/OR MODIFY
# IT UNDER THE TERMS OF THE GNU GENERAL PUBLIC LICENSE AS PUBLISHED BY
# THE FREE SOFTWARE FOUNDATION; EITHER VERSION 2 OF THE LICENSE, OR   
# (AT YOUR OPTION) ANY LATER VERSION.                                 
#
# THIS PROGRAM IS DISTRIBUTED IN THE HOPE THAT IT WILL BE USEFUL, BUT 
# WITHOUT ANY WARRANTY; WITHOUT EVEN THE IMPLIED WARRANTY OF          
# MERCHANTABILITY OR FITNESS FOR A PARTICULAR PURPOSE. SEE THE GNU    
# GENERAL PUBLIC LICENSE FOR MORE DETAILS.                            
#
# YOU SHOULD HAVE RECEIVED A COPY OF THE GNU GENERAL PUBLIC LICENSE   
# ALONG WITH THIS PROGRAM; IF NOT, WRITE TO EDF R&D CODE_ASTER,       
#    1 AVENUE DU GENERAL DE GAULLE, 92141 CLAMART CEDEX, FRANCE.      
# ======================================================================
#


DEBUT(CODE=_F( NOM = 'TTLP304A',NIV_PUB_WEB='INTERNET')
      )

#
# LECTURE DU MAILLAGE ----------------------------------------------
#

MAIL=LIRE_MAILLAGE( )

MAIL=DEFI_GROUP( reuse=MAIL,   MAILLAGE=MAIL,
     CREA_GROUP_MA=_F(  NOM = 'TOUT', TOUT = 'OUI'))

#
# DEFINITION DES CHARGEMENTS ET DU MATERIAU ------------------------
#

TIMP_0=DEFI_CONSTANTE( VALE=-17.778E0)

MATE=DEFI_MATERIAU( THER_ORTH=_F(  LAMBDA_L = 2.638E0,
                                    LAMBDA_T = 0.633E0,
                                    LAMBDA_N = 0.528E0,
                                          RHO_CP = 1899.1E0))

#
# AFFECTATIONS: MATERIAU, MODELE, CHARGEMENT ----------------------
#

CHMAT=AFFE_MATERIAU(  MAILLAGE=MAIL,
                 AFFE=_F(  TOUT = 'OUI', MATER = MATE) )

MOTH=AFFE_MODELE(  MAILLAGE=MAIL,
               AFFE=_F( TOUT = 'OUI', MODELISATION = 'PLAN',
                                   PHENOMENE = 'THERMIQUE'))

CHTH=AFFE_CHAR_THER_F(MODELE=MOTH,
          TEMP_IMPO=_F( GROUP_NO = 'TEMP_IMP', TEMP = TIMP_0)
         )

ESSAI=AFFE_CARA_ELEM(MODELE=MOTH,

                MASSIF=_F( 
                GROUP_MA = 'TOUT',
                ANGL_REP = (0.,  0., ))
                )

#
# DEFINITION DE LA STATEGIE DE CALCUL -----------------------------
#

LR8=DEFI_LIST_REEL(        DEBUT=0.,INTERVALLE=(
                   _F(    JUSQU_A = 5.00E0,   NOMBRE = 10),
                   _F(    JUSQU_A = 5.00E1,   NOMBRE = 9),
                   _F(    JUSQU_A = 5.00E2,   NOMBRE = 9),
                   _F(    JUSQU_A = 4.30E3,   NOMBRE = 38),
                   _F(    JUSQU_A = 4.32E3,   NOMBRE = 1))
                  )

#
# RESOLUTION ------------------------------------------------------
#

TEMPE=THER_LINEAIRE(        MODELE=MOTH,
                      TEMP_INIT=_F( VALE = -1.111E0),
                      INCREMENT=_F( LIST_INST = LR8),
                       CHAM_MATER=CHMAT,
                        CARA_ELEM=ESSAI,
                          EXCIT=_F( CHARGE = CHTH)
               )

#
# ANALYSE DES RESULTATS -------------------------------------------
#
TEMP_12=CREA_CHAMP(  OPERATION='EXTR', TYPE_CHAM='NOEU_TEMP_R',
NOM_CHAM='TEMP', RESULTAT=TEMPE,
            INST=4320. )

TEST_RESU(CHAM_NO=(
#
#-- X = 0.6
#
#                           ECART RELATIF
#
_F( CHAM_GD = TEMP_12, NOEUD = 'N3',  NOM_CMP = 'TEMP', VALE = -17.0203, PRECISION = 1.E-2),
_F( CHAM_GD = TEMP_12, NOEUD = 'N6',  NOM_CMP = 'TEMP', VALE = -16.1025, PRECISION = 1.E-2),
_F( CHAM_GD = TEMP_12, NOEUD = 'N10', NOM_CMP = 'TEMP', VALE = -15.6151, PRECISION = 1.E-2),
#
#                           ECART ABSOLU
#
  _F( CHAM_GD = TEMP_12, NOEUD = 'N3',  NOM_CMP = 'TEMP',   CRITERE = 'ABSOLU',
                            VALE = -17.0203, PRECISION = 5.E-2),
  _F( CHAM_GD = TEMP_12, NOEUD = 'N6',  NOM_CMP = 'TEMP',   CRITERE = 'ABSOLU',
                            VALE = -16.1025, PRECISION = 5.E-2),
  _F( CHAM_GD = TEMP_12, NOEUD = 'N10', NOM_CMP = 'TEMP',   CRITERE = 'ABSOLU',
                            VALE = -15.6151, PRECISION = 5.E-2),
#
#-- X = 0.9
#
#                           ECART RELATIF
#
_F( CHAM_GD = TEMP_12, NOEUD = 'N33', NOM_CMP = 'TEMP', VALE = -17.1218, PRECISION = 1.E-2),
_F( CHAM_GD = TEMP_12, NOEUD = 'N36', NOM_CMP = 'TEMP', VALE = -16.3269, PRECISION = 1.E-2),
_F( CHAM_GD = TEMP_12, NOEUD = 'N40', NOM_CMP = 'TEMP', VALE = -15.9049, PRECISION = 1.E-2),
#
#                           ECART ABSOLU
#
  _F( CHAM_GD = TEMP_12, NOEUD = 'N33', NOM_CMP = 'TEMP',   CRITERE = 'ABSOLU',
                            VALE = -17.1218, PRECISION = 5.E-2),
  _F( CHAM_GD = TEMP_12, NOEUD = 'N36', NOM_CMP = 'TEMP',   CRITERE = 'ABSOLU',
                            VALE = -16.3269, PRECISION = 5.E-2),
  _F( CHAM_GD = TEMP_12, NOEUD = 'N40', NOM_CMP = 'TEMP',   CRITERE = 'ABSOLU',
                            VALE = -15.9049, PRECISION = 5.E-2),
#
#-- X = 1.8
#
#                           ECART RELATIF
#
_F( CHAM_GD = TEMP_12, NOEUD = 'N63', NOM_CMP = 'TEMP', VALE = -17.3991, PRECISION = 1.E-2),
_F( CHAM_GD = TEMP_12, NOEUD = 'N66', NOM_CMP = 'TEMP', VALE = -16.9401, PRECISION = 1.E-2),
_F( CHAM_GD = TEMP_12, NOEUD = 'N70', NOM_CMP = 'TEMP', VALE = -16.6964, PRECISION = 1.E-2),
#
#                           ECART ABSOLU
#
  _F( CHAM_GD = TEMP_12, NOEUD = 'N63', NOM_CMP = 'TEMP',   CRITERE = 'ABSOLU',
                            VALE = -17.3991, PRECISION = 5.E-2),
  _F( CHAM_GD = TEMP_12, NOEUD = 'N66', NOM_CMP = 'TEMP',   CRITERE = 'ABSOLU',
                            VALE = -16.9401, PRECISION = 5.E-2),
  _F( CHAM_GD = TEMP_12, NOEUD = 'N70', NOM_CMP = 'TEMP',   CRITERE = 'ABSOLU',
                            VALE = -16.6964, PRECISION = 5.E-2))

    )

FIN()
#
#
#
#
#
#
#
#
#
#
