# ======================================================================
# COPYRIGHT (C) 1991 - 2016  EDF R&D                  WWW.CODE-ASTER.ORG
# THIS PROGRAM IS FREE SOFTWARE; YOU CAN REDISTRIBUTE IT AND/OR MODIFY
# IT UNDER THE TERMS OF THE GNU GENERAL PUBLIC LICENSE AS PUBLISHED BY
# THE FREE SOFTWARE FOUNDATION; EITHER VERSION 2 OF THE LICENSE, OR
# (AT YOUR OPTION) ANY LATER VERSION.
#
# THIS PROGRAM IS DISTRIBUTED IN THE HOPE THAT IT WILL BE USEFUL, BUT
# WITHOUT ANY WARRANTY; WITHOUT EVEN THE IMPLIED WARRANTY OF
# MERCHANTABILITY OR FITNESS FOR A PARTICULAR PURPOSE. SEE THE GNU
# GENERAL PUBLIC LICENSE FOR MORE DETAILS.
#
# YOU SHOULD HAVE RECEIVED A COPY OF THE GNU GENERAL PUBLIC LICENSE
# ALONG WITH THIS PROGRAM; IF NOT, WRITE TO EDF R&D CODE_ASTER,
#    1 AVENUE DU GENERAL DE GAULLE, 92141 CLAMART CEDEX, FRANCE.
# ======================================================================
#
# MAILLES : PENTA15 , QUAD8
#

DEBUT(  CODE=_F(NIV_PUB_WEB='INTERNET')
      )

#
# LECTURE DU MAILLAGE --------------------------------------------------
#


MAIL=LIRE_MAILLAGE(FORMAT='MED', )

#
# DEFINITION DES CHARGEMENTS ET DU MATERIAU ----------------------------
#

# ----- MATERIAU


MATER=DEFI_MATERIAU(   THER=_F(  LAMBDA = .1,  RHO_CP = 1.)
                       )

#
# AFFECTATIONS: MATERIAU, MODELE, CHARGEMENT ---------------------------
#


CHMAT=AFFE_MATERIAU(   MAILLAGE=MAIL,
                           AFFE=_F(  TOUT = 'OUI',  MATER = MATER)
                        )

MOTH=AFFE_MODELE(     MAILLAGE=MAIL,
                           AFFE=_F(  TOUT = 'OUI',
                                  MODELISATION = '3D',
                                  PHENOMENE = 'THERMIQUE')
                        )

CHTH=AFFE_CHAR_THER(   MODELE=MOTH,
                            FLUX_REP=_F(  GROUP_MA = 'GRP_FLU',  FLUN = 1.),
                             ECHANGE=_F(  GROUP_MA = 'GRP_ECH',
                                       COEF_H = 1.,  TEMP_EXT = 0.)
                         )

#
# DEFINITION DE LA STRATEGIE DE CALCUL --------------------------------
#


LTMPS=DEFI_LIST_REEL(   DEBUT=0.,INTERVALLE=(
                            _F(  JUSQU_A = 0.2,   NOMBRE = 10),
                            _F(  JUSQU_A = 1.2,   NOMBRE = 10))
                         )

#
# RESOLUTION ----------------------------------------------------------
#

TEMPE=THER_LINEAIRE(  MODELE=MOTH,
                          ETAT_INIT=_F(  VALE = 0.E0),
                          INCREMENT=_F(  LIST_INST = LTMPS),
                          CHAM_MATER=CHMAT,
                          EXCIT=_F( CHARGE = CHTH)
                       )

#
# ANALYSE DES RESULTATS -----------------------------------------------
#

TEMP_01=CREA_CHAMP(  OPERATION='EXTR', TYPE_CHAM='NOEU_TEMP_R',
NOM_CHAM='TEMP', RESULTAT=TEMPE,
                           INST=0.1   )

TEMP_02=CREA_CHAMP(  OPERATION='EXTR', TYPE_CHAM='NOEU_TEMP_R',
NOM_CHAM='TEMP', RESULTAT=TEMPE,
                           INST=0.2   )

TEMP_03=CREA_CHAMP(  OPERATION='EXTR', TYPE_CHAM='NOEU_TEMP_R',
NOM_CHAM='TEMP', RESULTAT=TEMPE,
                           INST=0.3   )

TEMP_04=CREA_CHAMP(  OPERATION='EXTR', TYPE_CHAM='NOEU_TEMP_R',
NOM_CHAM='TEMP', RESULTAT=TEMPE,
                           INST=0.4   )

TEMP_05=CREA_CHAMP(  OPERATION='EXTR', TYPE_CHAM='NOEU_TEMP_R',
NOM_CHAM='TEMP', RESULTAT=TEMPE,
                           INST=0.5   )

TEMP_06=CREA_CHAMP(  OPERATION='EXTR', TYPE_CHAM='NOEU_TEMP_R',
NOM_CHAM='TEMP', RESULTAT=TEMPE,
                           INST=0.6   )

TEMP_07=CREA_CHAMP(  OPERATION='EXTR', TYPE_CHAM='NOEU_TEMP_R',
NOM_CHAM='TEMP', RESULTAT=TEMPE,
                           INST=0.7   )

TEMP_08=CREA_CHAMP(  OPERATION='EXTR', TYPE_CHAM='NOEU_TEMP_R',
NOM_CHAM='TEMP', RESULTAT=TEMPE,
                           INST=0.8   )

TEMP_09=CREA_CHAMP(  OPERATION='EXTR', TYPE_CHAM='NOEU_TEMP_R',
NOM_CHAM='TEMP', RESULTAT=TEMPE,
                           INST=0.9   )

TEMP_10=CREA_CHAMP(  OPERATION='EXTR', TYPE_CHAM='NOEU_TEMP_R',
NOM_CHAM='TEMP', RESULTAT=TEMPE,
                           INST=1.0   )

TEMP_11=CREA_CHAMP(  OPERATION='EXTR', TYPE_CHAM='NOEU_TEMP_R',
NOM_CHAM='TEMP', RESULTAT=TEMPE,
                           INST=1.1   )

TEMP_12=CREA_CHAMP(  OPERATION='EXTR', TYPE_CHAM='NOEU_TEMP_R',
NOM_CHAM='TEMP', RESULTAT=TEMPE,
                           INST=1.2   )

TEST_RESU(CHAM_NO=(_F(NOEUD='N1',
                      NOM_CMP='TEMP',
                      PRECISION=0.029999999999999999,
                      CHAM_GD=TEMP_01,
                      VALE_CALC=1.066457807,
                      VALE_REFE=1.0449999999999999,
                      REFERENCE='SOURCE_EXTERNE',),
                   _F(NOEUD='N1',
                      NOM_CMP='TEMP',
                      PRECISION=0.02,
                      CHAM_GD=TEMP_02,
                      VALE_CALC=1.451418142,
                      VALE_REFE=1.4470000000000001,
                      REFERENCE='SOURCE_EXTERNE',),
                   _F(NOEUD='N1',
                      NOM_CMP='TEMP',
                      PRECISION=0.02,
                      CHAM_GD=TEMP_03,
                      VALE_CALC=1.748028571,
                      VALE_REFE=1.742,
                      REFERENCE='SOURCE_EXTERNE',),
                   _F(NOEUD='N1',
                      NOM_CMP='TEMP',
                      PRECISION=0.02,
                      CHAM_GD=TEMP_04,
                      VALE_CALC=1.984692978,
                      VALE_REFE=1.982,
                      REFERENCE='SOURCE_EXTERNE',),
                   _F(NOEUD='N1',
                      NOM_CMP='TEMP',
                      PRECISION=0.02,
                      CHAM_GD=TEMP_05,
                      VALE_CALC=2.192907755,
                      VALE_REFE=2.1890000000000001,
                      REFERENCE='SOURCE_EXTERNE',),
                   _F(NOEUD='N1',
                      NOM_CMP='TEMP',
                      PRECISION=0.02,
                      CHAM_GD=TEMP_06,
                      VALE_CALC=2.375710668,
                      VALE_REFE=2.3730000000000002,
                      REFERENCE='SOURCE_EXTERNE',),
                   _F(NOEUD='N1',
                      NOM_CMP='TEMP',
                      PRECISION=0.02,
                      CHAM_GD=TEMP_07,
                      VALE_CALC=2.545122013,
                      VALE_REFE=2.5409999999999999,
                      REFERENCE='SOURCE_EXTERNE',),
                   _F(NOEUD='N1',
                      NOM_CMP='TEMP',
                      PRECISION=0.02,
                      CHAM_GD=TEMP_08,
                      VALE_CALC=2.701007860,
                      VALE_REFE=2.698,
                      REFERENCE='SOURCE_EXTERNE',),
                   _F(NOEUD='N1',
                      NOM_CMP='TEMP',
                      PRECISION=0.02,
                      CHAM_GD=TEMP_09,
                      VALE_CALC=2.849116668,
                      VALE_REFE=2.8460000000000001,
                      REFERENCE='SOURCE_EXTERNE',),
                   _F(NOEUD='N1',
                      NOM_CMP='TEMP',
                      PRECISION=0.02,
                      CHAM_GD=TEMP_10,
                      VALE_CALC=2.988894176,
                      VALE_REFE=2.9860000000000002,
                      REFERENCE='SOURCE_EXTERNE',),
                   _F(NOEUD='N1',
                      NOM_CMP='TEMP',
                      PRECISION=0.02,
                      CHAM_GD=TEMP_11,
                      VALE_CALC=3.123237238,
                      VALE_REFE=3.1200000000000001,
                      REFERENCE='SOURCE_EXTERNE',),
                   _F(NOEUD='N1',
                      NOM_CMP='TEMP',
                      PRECISION=0.02,
                      CHAM_GD=TEMP_12,
                      VALE_CALC=3.251691432,
                      VALE_REFE=3.2480000000000002,
                      REFERENCE='SOURCE_EXTERNE',),
                   _F(NOEUD='N719',
                      NOM_CMP='TEMP',
                      PRECISION=0.02,
                      CHAM_GD=TEMP_12,
                      VALE_CALC=3.251691427,
                      VALE_REFE=3.2480000000000002,
                      REFERENCE='SOURCE_EXTERNE',),
                   _F(NOEUD='N911',
                      NOM_CMP='TEMP',
                      PRECISION=0.02,
                      CHAM_GD=TEMP_12,
                      VALE_CALC=3.251691436,
                      VALE_REFE=3.2480000000000002,
                      REFERENCE='SOURCE_EXTERNE',),
                   _F(NOEUD='N1629',
                      NOM_CMP='TEMP',
                      PRECISION=0.02,
                      CHAM_GD=TEMP_12,
                      VALE_CALC=3.251691428,
                      VALE_REFE=3.2480000000000002,
                      REFERENCE='SOURCE_EXTERNE',),
                   _F(NOEUD='N1821',
                      NOM_CMP='TEMP',
                      PRECISION=0.02,
                      CHAM_GD=TEMP_12,
                      VALE_CALC=3.251691433,
                      VALE_REFE=3.2480000000000002,
                      REFERENCE='SOURCE_EXTERNE',),
                   ),
          )

#
# FIN ------------------------------------------------------------------
#

FIN()
#
#
#
#
#
#
#
#
#
#
#
#
#
