# MODIF  DATE 07/06/2000   AUTEUR VABHHTS J.PELLET 
# TITRE TRANSFERT THERMIQUE DANS UN DOMAINE PLAN AVEC SINGULARITE
#            CONFIGURATION MANAGEMENT OF EDF VERSION
# ======================================================================
# COPYRIGHT (C) 1991 - 2001  EDF R&D                  WWW.CODE-ASTER.ORG
# THIS PROGRAM IS FREE SOFTWARE; YOU CAN REDISTRIBUTE IT AND/OR MODIFY
# IT UNDER THE TERMS OF THE GNU GENERAL PUBLIC LICENSE AS PUBLISHED BY
# THE FREE SOFTWARE FOUNDATION; EITHER VERSION 2 OF THE LICENSE, OR   
# (AT YOUR OPTION) ANY LATER VERSION.                                 
#
# THIS PROGRAM IS DISTRIBUTED IN THE HOPE THAT IT WILL BE USEFUL, BUT 
# WITHOUT ANY WARRANTY; WITHOUT EVEN THE IMPLIED WARRANTY OF          
# MERCHANTABILITY OR FITNESS FOR A PARTICULAR PURPOSE. SEE THE GNU    
# GENERAL PUBLIC LICENSE FOR MORE DETAILS.                            
#
# YOU SHOULD HAVE RECEIVED A COPY OF THE GNU GENERAL PUBLIC LICENSE   
# ALONG WITH THIS PROGRAM; IF NOT, WRITE TO EDF R&D CODE_ASTER,       
#    1 AVENUE DU GENERAL DE GAULLE, 92141 CLAMART CEDEX, FRANCE.      
# ======================================================================
#       GEOMETRIQUE
#


DEBUT(CODE=_F( NOM = 'TTLP302A',NIV_PUB_WEB='INTERNET')
      )

#
# LECTURE DU MAILLAGE ----------------------------------------------
#

MAIL=LIRE_MAILLAGE( )

#
# DEFINITION DES CHARGEMENTS ET DU MATERIAU ------------------------
#

TIMP_0=DEFI_CONSTANTE( VALE=0.0)

TIMP1000=DEFI_CONSTANTE( VALE=1000.0)

MATE=DEFI_MATERIAU( THER=_F(  LAMBDA = 1.E0, RHO_CP = 1.00E0))

#
# AFFECTATIONS: MATERIAU, MODELE, CHARGEMENT ----------------------
#

CHMAT=AFFE_MATERIAU(  MAILLAGE=MAIL,
                 AFFE=_F(  TOUT = 'OUI', MATER = MATE) )

MOTH=AFFE_MODELE(  MAILLAGE=MAIL,
               AFFE=_F( TOUT = 'OUI', MODELISATION = 'PLAN',
                                   PHENOMENE = 'THERMIQUE'))

CHTH=AFFE_CHAR_THER_F(MODELE=MOTH,TEMP_IMPO=(
          _F( GROUP_NO = 'T_1000', TEMP = TIMP1000),
          _F( GROUP_NO = 'T_0000', TEMP = TIMP_0))
          )

CHNO=CREA_CHAMP( OPERATION='AFFE', TYPE_CHAM='NOEU_TEMP_R', 
MAILLAGE=MAIL,AFFE=(
               _F( NOEUD = 'N1', NOM_CMP = 'TEMP',  VALE = 0.10000E+01),
               _F( NOEUD = 'N2', NOM_CMP = 'TEMP',  VALE = 0.10000E+01),
               _F( NOEUD = 'N3', NOM_CMP = 'TEMP',  VALE = 0.10000E+01),
               _F( NOEUD = 'N4', NOM_CMP = 'TEMP',  VALE = 0.10000E+01),
               _F( NOEUD = 'N5', NOM_CMP = 'TEMP',  VALE = 0.10000E+01),
               _F( NOEUD = 'N6', NOM_CMP = 'TEMP',  VALE = 0.10000E+01),
               _F( NOEUD = 'N7', NOM_CMP = 'TEMP',  VALE = 0.11385E+00),
               _F( NOEUD = 'N8', NOM_CMP = 'TEMP',  VALE = 0.11385E+00),
               _F( NOEUD = 'N9', NOM_CMP = 'TEMP',  VALE = 0.11385E+00),
               _F( NOEUD = 'N10', NOM_CMP = 'TEMP', VALE = 0.11385E+00),
               _F( NOEUD = 'N11', NOM_CMP = 'TEMP', VALE = 0.11385E+00),
               _F( NOEUD = 'N12', NOM_CMP = 'TEMP', VALE = 0.11385E+00),
               _F( NOEUD = 'N13', NOM_CMP = 'TEMP', VALE = 0.15654E-02),
               _F( NOEUD = 'N14', NOM_CMP = 'TEMP', VALE = 0.15654E-02),
               _F( NOEUD = 'N15', NOM_CMP = 'TEMP', VALE = 0.15654E-02),
               _F( NOEUD = 'N16', NOM_CMP = 'TEMP', VALE = 0.15654E-02),
               _F( NOEUD = 'N17', NOM_CMP = 'TEMP', VALE = 0.15654E-02),
               _F( NOEUD = 'N18', NOM_CMP = 'TEMP', VALE = 0.15654E-02),
               _F( NOEUD = 'N19', NOM_CMP = 'TEMP', VALE = 0.21014E-05),
               _F( NOEUD = 'N20', NOM_CMP = 'TEMP', VALE = 0.21014E-05),
# ... 61 like lines cut
               _F( NOEUD = 'N82', NOM_CMP = 'TEMP', VALE = 0.00000E+00))
                         )

#
# DEFINITION DE LA STATEGIE DE CALCUL -----------------------------
#

LR8=DEFI_LIST_REEL(        DEBUT=0.,INTERVALLE=(
                   _F(    JUSQU_A = 1.E-4,   NOMBRE = 10),
                   _F(    JUSQU_A = 1.E-3,   NOMBRE = 9),
                   _F(    JUSQU_A = 1.E-2,   NOMBRE = 9),
                   _F(    JUSQU_A = 1.E-1,   NOMBRE = 9))
                  )

#
# RESOLUTION ------------------------------------------------------
#

TEMPE=THER_LINEAIRE(        MODELE=MOTH,
                      TEMP_INIT=_F( CHAM_NO = CHNO),
                      INCREMENT=_F( LIST_INST = LR8),
                       CHAM_MATER=CHMAT,
                          EXCIT=_F( CHARGE = CHTH)
               )

#
# ANALYSE DES RESULTATS -------------------------------------------
#

TEMP_01=CREA_CHAMP( OPERATION='EXTR', TYPE_CHAM='NOEU_TEMP_R',
RESULTAT=TEMPE, NOM_CHAM='TEMP',
             INST=0.1 )

TEST_RESU(CHAM_NO=(
#
_F( CHAM_GD = TEMP_01, NOEUD = 'N37', NOM_CMP = 'TEMP', VALE = 787., PRECISION = 2.E-2),
_F( CHAM_GD = TEMP_01, NOEUD = 'N39', NOM_CMP = 'TEMP', VALE = 634., PRECISION = 2.E-2),
_F( CHAM_GD = TEMP_01, NOEUD = 'N61', NOM_CMP = 'TEMP', VALE = 86., PRECISION = 2.E-2),
_F( CHAM_GD = TEMP_01, NOEUD = 'N59', NOM_CMP = 'TEMP', VALE = 28., PRECISION = 2.E-2),
_F( CHAM_GD = TEMP_01, NOEUD = 'N64', NOM_CMP = 'TEMP', VALE = 119., PRECISION = 2.E-2),
_F( CHAM_GD = TEMP_01, NOEUD = 'N42', NOM_CMP = 'TEMP', VALE = 538., PRECISION = 2.E-2))
    )

FIN()
#
#
#
#
#
#
#
#
#
#
