# MODIF  DATE 30/07/2012   AUTEUR LEFEBVRE J-P.LEFEBVRE 
# TITRE TRANSFERT DE CHALEUR DANS UNE PLAQUE PERFOREE
# ttlp301a.para = tps_job 60 mem_job 256Mo ncpus 1 liste_test V
#            CONFIGURATION MANAGEMENT OF EDF VERSION
# ======================================================================
# COPYRIGHT (C) 1991 - 2012  EDF R&D                  WWW.CODE-ASTER.ORG
# THIS PROGRAM IS FREE SOFTWARE; YOU CAN REDISTRIBUTE IT AND/OR MODIFY
# IT UNDER THE TERMS OF THE GNU GENERAL PUBLIC LICENSE AS PUBLISHED BY
# THE FREE SOFTWARE FOUNDATION; EITHER VERSION 2 OF THE LICENSE, OR   
# (AT YOUR OPTION) ANY LATER VERSION.                                 
#
# THIS PROGRAM IS DISTRIBUTED IN THE HOPE THAT IT WILL BE USEFUL, BUT 
# WITHOUT ANY WARRANTY; WITHOUT EVEN THE IMPLIED WARRANTY OF          
# MERCHANTABILITY OR FITNESS FOR A PARTICULAR PURPOSE. SEE THE GNU    
# GENERAL PUBLIC LICENSE FOR MORE DETAILS.                            
#
# YOU SHOULD HAVE RECEIVED A COPY OF THE GNU GENERAL PUBLIC LICENSE   
# ALONG WITH THIS PROGRAM; IF NOT, WRITE TO EDF R&D CODE_ASTER,       
#    1 AVENUE DU GENERAL DE GAULLE, 92141 CLAMART CEDEX, FRANCE.      
# ======================================================================
#
# MAILLES : PENTA15 , QUAD8
#

DEBUT(  CODE=_F(  NOM = 'TTLP301A',NIV_PUB_WEB='INTERNET')
      )

#
# LECTURE DU MAILLAGE --------------------------------------------------
#


MAIL=LIRE_MAILLAGE(FORMAT='MED', )

#
# DEFINITION DES CHARGEMENTS ET DU MATERIAU ----------------------------
#

# ----- MATERIAU


MATER=DEFI_MATERIAU(   THER=_F(  LAMBDA = 0.1,  RHO_CP = 1.0)
                       )

#
# AFFECTATIONS: MATERIAU, MODELE, CHARGEMENT ---------------------------
#


CHMAT=AFFE_MATERIAU(   MAILLAGE=MAIL,
                           AFFE=_F(  TOUT = 'OUI',  MATER = MATER)
                        )

MOTH=AFFE_MODELE(     MAILLAGE=MAIL,
                           AFFE=_F(  TOUT = 'OUI',
                                  MODELISATION = 'PLAN',
                                  PHENOMENE = 'THERMIQUE')
                        )

CHTH=AFFE_CHAR_THER(   MODELE=MOTH,
                            FLUX_REP=_F(  GROUP_MA = 'GRP_FLU',  FLUN = 1.0),
                             ECHANGE=_F(  GROUP_MA = 'GRP_ECH',
                                       COEF_H = 1.0,  TEMP_EXT = 0.0)
                         )

#
# DEFINITION DE LA STRATEGIE DE CALCUL --------------------------------
#


LTMPS=DEFI_LIST_REEL(   DEBUT=0.,INTERVALLE=(
                            _F(  JUSQU_A = 0.2,   NOMBRE = 10),
                            _F(  JUSQU_A = 1.2,   NOMBRE = 10))
                         )

#
# RESOLUTION ----------------------------------------------------------
#

TEMPE=THER_LINEAIRE(  MODELE=MOTH,
                          ETAT_INIT=_F(  VALE = 0.E0),
                          INCREMENT=_F(  LIST_INST = LTMPS),
                          CHAM_MATER=CHMAT,
                          EXCIT=_F( CHARGE = CHTH)
                       )

#
# ANALYSE DES RESULTATS -----------------------------------------------
#

TEMP_01=CREA_CHAMP(  OPERATION='EXTR', TYPE_CHAM='NOEU_TEMP_R',
NOM_CHAM='TEMP', RESULTAT=TEMPE,
                           INST=0.1   )

TEMP_02=CREA_CHAMP(  OPERATION='EXTR', TYPE_CHAM='NOEU_TEMP_R',
NOM_CHAM='TEMP', RESULTAT=TEMPE,
                           INST=0.2   )

TEMP_03=CREA_CHAMP(  OPERATION='EXTR', TYPE_CHAM='NOEU_TEMP_R',
NOM_CHAM='TEMP', RESULTAT=TEMPE,
                           INST=0.3   )

TEMP_04=CREA_CHAMP(  OPERATION='EXTR', TYPE_CHAM='NOEU_TEMP_R',
NOM_CHAM='TEMP', RESULTAT=TEMPE,
                           INST=0.4   )

TEMP_05=CREA_CHAMP(  OPERATION='EXTR', TYPE_CHAM='NOEU_TEMP_R',
NOM_CHAM='TEMP', RESULTAT=TEMPE,
                           INST=0.5   )

TEMP_06=CREA_CHAMP(  OPERATION='EXTR', TYPE_CHAM='NOEU_TEMP_R',
NOM_CHAM='TEMP', RESULTAT=TEMPE,
                           INST=0.6   )

TEMP_07=CREA_CHAMP(  OPERATION='EXTR', TYPE_CHAM='NOEU_TEMP_R',
NOM_CHAM='TEMP', RESULTAT=TEMPE,
                           INST=0.7   )

TEMP_08=CREA_CHAMP(  OPERATION='EXTR', TYPE_CHAM='NOEU_TEMP_R',
NOM_CHAM='TEMP', RESULTAT=TEMPE,
                           INST=0.8   )

TEMP_09=CREA_CHAMP(  OPERATION='EXTR', TYPE_CHAM='NOEU_TEMP_R',
NOM_CHAM='TEMP', RESULTAT=TEMPE,
                           INST=0.9   )

TEMP_10=CREA_CHAMP(  OPERATION='EXTR', TYPE_CHAM='NOEU_TEMP_R',
NOM_CHAM='TEMP', RESULTAT=TEMPE,
                           INST=1.0   )

TEMP_11=CREA_CHAMP(  OPERATION='EXTR', TYPE_CHAM='NOEU_TEMP_R',
NOM_CHAM='TEMP', RESULTAT=TEMPE,
                           INST=1.1   )

TEMP_12=CREA_CHAMP(  OPERATION='EXTR', TYPE_CHAM='NOEU_TEMP_R',
NOM_CHAM='TEMP', RESULTAT=TEMPE,
                           INST=1.2   )

TEST_RESU(CHAM_NO=(

   
_F( CHAM_GD = TEMP_01,  NOEUD = 'N1', NOM_CMP = 'TEMP', VALE = 1.045, PRECISION = 3.E-2),
_F( CHAM_GD = TEMP_02,  NOEUD = 'N1', NOM_CMP = 'TEMP', VALE = 1.447, PRECISION = 2.E-2),
_F( CHAM_GD = TEMP_03,  NOEUD = 'N1', NOM_CMP = 'TEMP', VALE = 1.742, PRECISION = 2.E-2),
_F( CHAM_GD = TEMP_04,  NOEUD = 'N1', NOM_CMP = 'TEMP', VALE = 1.982, PRECISION = 2.E-2),
_F( CHAM_GD = TEMP_05,  NOEUD = 'N1', NOM_CMP = 'TEMP', VALE = 2.189, PRECISION = 2.E-2),
_F( CHAM_GD = TEMP_06,  NOEUD = 'N1', NOM_CMP = 'TEMP', VALE = 2.373, PRECISION = 2.E-2),
_F( CHAM_GD = TEMP_07,  NOEUD = 'N1', NOM_CMP = 'TEMP', VALE = 2.541, PRECISION = 2.E-2),
_F( CHAM_GD = TEMP_08,  NOEUD = 'N1', NOM_CMP = 'TEMP', VALE = 2.698, PRECISION = 2.E-2),
_F( CHAM_GD = TEMP_09,  NOEUD = 'N1', NOM_CMP = 'TEMP', VALE = 2.846, PRECISION = 2.E-2),
_F( CHAM_GD = TEMP_10,  NOEUD = 'N1', NOM_CMP = 'TEMP', VALE = 2.986, PRECISION = 2.E-2),
_F( CHAM_GD = TEMP_11,  NOEUD = 'N1', NOM_CMP = 'TEMP', VALE = 3.120, PRECISION = 2.E-2),
_F( CHAM_GD = TEMP_12,   NOEUD = 'N1', NOM_CMP = 'TEMP', VALE = 3.248, PRECISION = 2.E-2))

           )

#
# FIN ------------------------------------------------------------------
#

FIN()
#
#
#
#
#
#
#
#
#
#
#
#
#
