# TITRE ECHANGE DE CHALEUR PAR CONVECTION SUR UNE SPHERE
# ======================================================================
# COPYRIGHT (C) 1991 - 2012  EDF R&D                  WWW.CODE-ASTER.ORG
# THIS PROGRAM IS FREE SOFTWARE; YOU CAN REDISTRIBUTE IT AND/OR MODIFY
# IT UNDER THE TERMS OF THE GNU GENERAL PUBLIC LICENSE AS PUBLISHED BY
# THE FREE SOFTWARE FOUNDATION; EITHER VERSION 2 OF THE LICENSE, OR   
# (AT YOUR OPTION) ANY LATER VERSION.                                 
#
# THIS PROGRAM IS DISTRIBUTED IN THE HOPE THAT IT WILL BE USEFUL, BUT 
# WITHOUT ANY WARRANTY; WITHOUT EVEN THE IMPLIED WARRANTY OF          
# MERCHANTABILITY OR FITNESS FOR A PARTICULAR PURPOSE. SEE THE GNU    
# GENERAL PUBLIC LICENSE FOR MORE DETAILS.                            
#
# YOU SHOULD HAVE RECEIVED A COPY OF THE GNU GENERAL PUBLIC LICENSE   
# ALONG WITH THIS PROGRAM; IF NOT, WRITE TO EDF R&D CODE_ASTER,       
#    1 AVENUE DU GENERAL DE GAULLE, 92141 CLAMART CEDEX, FRANCE.      
# ======================================================================
#
# MAILLES : QUAD8 , TRIA6  (ET SEG3)
#

DEBUT(  CODE=_F(NIV_PUB_WEB='INTERNET') )

#
# LECTURE DU MAILLAGE --------------------------------------------------
#


MAIL=LIRE_MAILLAGE(FORMAT='MED', )

#
# DEFINITION DES CHARGEMENTS ET DU MATERIAU ----------------------------
#

# ----- MATERIAU


MATER=DEFI_MATERIAU(   THER=_F(  LAMBDA = 48.822,  RHO_CP = 4816800.) )

#
# AFFECTATIONS: MATERIAU, MODELE, CHARGEMENT ---------------------------
#


CHMAT=AFFE_MATERIAU(   MAILLAGE=MAIL,
                           AFFE=_F(  TOUT = 'OUI',  MATER = MATER)
                        )

MOTH=AFFE_MODELE(     MAILLAGE=MAIL,
                           AFFE=_F(  TOUT = 'OUI',
                                  MODELISATION = 'AXIS',
                                  PHENOMENE = 'THERMIQUE')
                        )

CHTH=AFFE_CHAR_THER(   MODELE=MOTH,
                             ECHANGE=_F(  GROUP_MA = 'FACE_EXT',
                                       COEF_H = 232.5,  TEMP_EXT = 1000.)
                         )

#
# DEFINITION DE LA STRATEGIE DE CALCUL ---------------------------------
#


LTMPS=DEFI_LIST_REEL(   DEBUT=0.,INTERVALLE=(
                            _F(  JUSQU_A = 100.,   NOMBRE = 8),
                            _F(  JUSQU_A = 300.,   NOMBRE = 8),
                            _F(  JUSQU_A = 700.,   NOMBRE = 8),
                            _F(  JUSQU_A = 1400.,   NOMBRE = 7),
                            _F(  JUSQU_A = 2400.,   NOMBRE = 5))
                         )

#
# RESOLUTION -----------------------------------------------------------
#

TEMPE=THER_LINEAIRE(  MODELE=MOTH,
                          ETAT_INIT=_F(  VALE = 20.E0),
                          INCREMENT=_F(  LIST_INST = LTMPS),
                          CHAM_MATER=CHMAT,
                          EXCIT=_F( CHARGE = CHTH)
                       )

#
# ANALYSE DES RESULTATS ------------------------------------------------
#

TM_0400=CREA_CHAMP(  OPERATION='EXTR', TYPE_CHAM='NOEU_TEMP_R',
NOM_CHAM='TEMP', RESULTAT=TEMPE,
                            INST=400. )

TM_0600=CREA_CHAMP(  OPERATION='EXTR', TYPE_CHAM='NOEU_TEMP_R',
NOM_CHAM='TEMP', RESULTAT=TEMPE,
                            INST=600. )

TM_0800=CREA_CHAMP(  OPERATION='EXTR', TYPE_CHAM='NOEU_TEMP_R',
NOM_CHAM='TEMP', RESULTAT=TEMPE,
                            INST=800. )

TM_1000=CREA_CHAMP(  OPERATION='EXTR', TYPE_CHAM='NOEU_TEMP_R',
NOM_CHAM='TEMP', RESULTAT=TEMPE,
                            INST=1000. )

TM_1200=CREA_CHAMP(  OPERATION='EXTR', TYPE_CHAM='NOEU_TEMP_R',
NOM_CHAM='TEMP', RESULTAT=TEMPE,
                            INST=1200. )

TM_1400=CREA_CHAMP(  OPERATION='EXTR', TYPE_CHAM='NOEU_TEMP_R',
NOM_CHAM='TEMP', RESULTAT=TEMPE,
                            INST=1400. )

TM_1600=CREA_CHAMP(  OPERATION='EXTR', TYPE_CHAM='NOEU_TEMP_R',
NOM_CHAM='TEMP', RESULTAT=TEMPE,
                            INST=1600. )

TM_1800=CREA_CHAMP(  OPERATION='EXTR', TYPE_CHAM='NOEU_TEMP_R',
NOM_CHAM='TEMP', RESULTAT=TEMPE,
                            INST=1800. )

TM_2000=CREA_CHAMP(  OPERATION='EXTR', TYPE_CHAM='NOEU_TEMP_R',
NOM_CHAM='TEMP', RESULTAT=TEMPE,
                            INST=2000. )

TM_2200=CREA_CHAMP(  OPERATION='EXTR', TYPE_CHAM='NOEU_TEMP_R',
NOM_CHAM='TEMP', RESULTAT=TEMPE,
                            INST=2200. )

TM_2400=CREA_CHAMP(  OPERATION='EXTR', TYPE_CHAM='NOEU_TEMP_R',
NOM_CHAM='TEMP', RESULTAT=TEMPE,
                            INST=2400. )

TEST_RESU(CHAM_NO=(_F(NOEUD='N1',
                      REFERENCE='ANALYTIQUE',
                      NOM_CMP='TEMP',
                      PRECISION=0.050000000000000003,
                      CHAM_GD=TM_0400,
                      VALE_CALC=341.071747126,
                      VALE_REFE=334.0,),
                   _F(NOEUD='N1',
                      REFERENCE='ANALYTIQUE',
                      NOM_CMP='TEMP',
                      PRECISION=0.050000000000000003,
                      CHAM_GD=TM_0600,
                      VALE_CALC=493.124167484,
                      VALE_REFE=500.0,),
                   _F(NOEUD='N1',
                      REFERENCE='ANALYTIQUE',
                      NOM_CMP='TEMP',
                      PRECISION=0.050000000000000003,
                      CHAM_GD=TM_0800,
                      VALE_CALC=609.933105396,
                      VALE_REFE=618.0,),
                   _F(NOEUD='N1',
                      REFERENCE='ANALYTIQUE',
                      NOM_CMP='TEMP',
                      PRECISION=0.050000000000000003,
                      CHAM_GD=TM_1000,
                      VALE_CALC=699.685615952,
                      VALE_REFE=706.0,),
                   _F(NOEUD='N1',
                      REFERENCE='ANALYTIQUE',
                      NOM_CMP='TEMP',
                      PRECISION=0.050000000000000003,
                      CHAM_GD=TM_1200,
                      VALE_CALC=768.786508031,
                      VALE_REFE=774.0,),
                   _F(NOEUD='N1',
                      REFERENCE='ANALYTIQUE',
                      NOM_CMP='TEMP',
                      PRECISION=0.050000000000000003,
                      CHAM_GD=TM_1400,
                      VALE_CALC=821.987617951,
                      VALE_REFE=828.0,),
                   _F(NOEUD='N1',
                      REFERENCE='ANALYTIQUE',
                      NOM_CMP='TEMP',
                      PRECISION=0.050000000000000003,
                      CHAM_GD=TM_1600,
                      VALE_CALC=862.772107911,
                      VALE_REFE=872.0,),
                   _F(NOEUD='N1',
                      REFERENCE='ANALYTIQUE',
                      NOM_CMP='TEMP',
                      PRECISION=0.050000000000000003,
                      CHAM_GD=TM_1800,
                      VALE_CALC=894.212446617,
                      VALE_REFE=902.0,),
                   _F(NOEUD='N1',
                      REFERENCE='ANALYTIQUE',
                      NOM_CMP='TEMP',
                      PRECISION=0.050000000000000003,
                      CHAM_GD=TM_2000,
                      VALE_CALC=918.449476419,
                      VALE_REFE=923.0,),
                   _F(NOEUD='N1',
                      REFERENCE='ANALYTIQUE',
                      NOM_CMP='TEMP',
                      PRECISION=0.050000000000000003,
                      CHAM_GD=TM_2200,
                      VALE_CALC=937.133550364,
                      VALE_REFE=942.0,),
                   _F(NOEUD='N1',
                      REFERENCE='ANALYTIQUE',
                      NOM_CMP='TEMP',
                      PRECISION=0.050000000000000003,
                      CHAM_GD=TM_2400,
                      VALE_CALC=951.536908459,
                      VALE_REFE=956.0,),
                   _F(NOEUD='N163',
                      REFERENCE='ANALYTIQUE',
                      NOM_CMP='TEMP',
                      PRECISION=0.050000000000000003,
                      CHAM_GD=TM_0400,
                      VALE_CALC=474.778287487,
                      VALE_REFE=461.0,),
                   _F(NOEUD='N171',
                      REFERENCE='ANALYTIQUE',
                      NOM_CMP='TEMP',
                      PRECISION=0.050000000000000003,
                      CHAM_GD=TM_0400,
                      VALE_CALC=474.773776497,
                      VALE_REFE=461.0,),
                   _F(NOEUD='N166',
                      REFERENCE='ANALYTIQUE',
                      NOM_CMP='TEMP',
                      PRECISION=0.050000000000000003,
                      CHAM_GD=TM_0400,
                      VALE_CALC=474.778716729,
                      VALE_REFE=461.0,),
                   _F(NOEUD='N156',
                      REFERENCE='ANALYTIQUE',
                      NOM_CMP='TEMP',
                      PRECISION=0.050000000000000003,
                      CHAM_GD=TM_0400,
                      VALE_CALC=474.784465111,
                      VALE_REFE=461.0,),
                   _F(NOEUD='N163',
                      REFERENCE='ANALYTIQUE',
                      NOM_CMP='TEMP',
                      PRECISION=0.050000000000000003,
                      CHAM_GD=TM_0600,
                      VALE_CALC=596.015626790,
                      VALE_REFE=608.0,),
                   _F(NOEUD='N164',
                      REFERENCE='ANALYTIQUE',
                      NOM_CMP='TEMP',
                      PRECISION=0.050000000000000003,
                      CHAM_GD=TM_0600,
                      VALE_CALC=596.014975737,
                      VALE_REFE=608.0,),
                   _F(NOEUD='N158',
                      REFERENCE='ANALYTIQUE',
                      NOM_CMP='TEMP',
                      PRECISION=0.050000000000000003,
                      CHAM_GD=TM_0600,
                      VALE_CALC=596.016461032,
                      VALE_REFE=608.0,),
                   _F(NOEUD='N163',
                      REFERENCE='ANALYTIQUE',
                      NOM_CMP='TEMP',
                      PRECISION=0.050000000000000003,
                      CHAM_GD=TM_0800,
                      VALE_CALC=689.119269949,
                      VALE_REFE=696.0,),
                   _F(NOEUD='N165',
                      REFERENCE='ANALYTIQUE',
                      NOM_CMP='TEMP',
                      PRECISION=0.050000000000000003,
                      CHAM_GD=TM_0800,
                      VALE_CALC=689.119145335,
                      VALE_REFE=696.0,),
                   _F(NOEUD='N166',
                      REFERENCE='ANALYTIQUE',
                      NOM_CMP='TEMP',
                      PRECISION=0.050000000000000003,
                      CHAM_GD=TM_0800,
                      VALE_CALC=689.119509598,
                      VALE_REFE=696.0,),
                   _F(NOEUD='N163',
                      REFERENCE='ANALYTIQUE',
                      NOM_CMP='TEMP',
                      PRECISION=0.050000000000000003,
                      CHAM_GD=TM_1000,
                      VALE_CALC=760.651020860,
                      VALE_REFE=774.0,),
                   _F(NOEUD='N167',
                      REFERENCE='ANALYTIQUE',
                      NOM_CMP='TEMP',
                      PRECISION=0.050000000000000003,
                      CHAM_GD=TM_1000,
                      VALE_CALC=760.651976236,
                      VALE_REFE=774.0,),
                   _F(NOEUD='N168',
                      REFERENCE='ANALYTIQUE',
                      NOM_CMP='TEMP',
                      PRECISION=0.050000000000000003,
                      CHAM_GD=TM_1000,
                      VALE_CALC=760.651714478,
                      VALE_REFE=774.0,),
                   _F(NOEUD='N163',
                      REFERENCE='ANALYTIQUE',
                      NOM_CMP='TEMP',
                      PRECISION=0.050000000000000003,
                      CHAM_GD=TM_1200,
                      VALE_CALC=815.723840712,
                      VALE_REFE=828.0,),
                   _F(NOEUD='N169',
                      REFERENCE='ANALYTIQUE',
                      NOM_CMP='TEMP',
                      PRECISION=0.050000000000000003,
                      CHAM_GD=TM_1200,
                      VALE_CALC=815.725171294,
                      VALE_REFE=828.0,),
                   _F(NOEUD='N170',
                      REFERENCE='ANALYTIQUE',
                      NOM_CMP='TEMP',
                      PRECISION=0.050000000000000003,
                      CHAM_GD=TM_1200,
                      VALE_CALC=815.724004283,
                      VALE_REFE=828.0,),
                   _F(NOEUD='N163',
                      REFERENCE='ANALYTIQUE',
                      NOM_CMP='TEMP',
                      PRECISION=0.050000000000000003,
                      CHAM_GD=TM_1400,
                      VALE_CALC=858.124770569,
                      VALE_REFE=868.0,),
                   _F(NOEUD='N171',
                      REFERENCE='ANALYTIQUE',
                      NOM_CMP='TEMP',
                      PRECISION=0.050000000000000003,
                      CHAM_GD=TM_1400,
                      VALE_CALC=858.123729541,
                      VALE_REFE=868.0,),
                   _F(NOEUD='N166',
                      REFERENCE='ANALYTIQUE',
                      NOM_CMP='TEMP',
                      PRECISION=0.050000000000000003,
                      CHAM_GD=TM_1400,
                      VALE_CALC=858.124880676,
                      VALE_REFE=868.0,),
                   _F(NOEUD='N156',
                      REFERENCE='ANALYTIQUE',
                      NOM_CMP='TEMP',
                      PRECISION=0.050000000000000003,
                      CHAM_GD=TM_1400,
                      VALE_CALC=858.126439312,
                      VALE_REFE=868.0,),
                   _F(NOEUD='N163',
                      REFERENCE='ANALYTIQUE',
                      NOM_CMP='TEMP',
                      PRECISION=0.050000000000000003,
                      CHAM_GD=TM_1600,
                      VALE_CALC=890.629360800,
                      VALE_REFE=902.0,),
                   _F(NOEUD='N164',
                      REFERENCE='ANALYTIQUE',
                      NOM_CMP='TEMP',
                      PRECISION=0.050000000000000003,
                      CHAM_GD=TM_1600,
                      VALE_CALC=890.629184456,
                      VALE_REFE=902.0,),
                   _F(NOEUD='N158',
                      REFERENCE='ANALYTIQUE',
                      NOM_CMP='TEMP',
                      PRECISION=0.050000000000000003,
                      CHAM_GD=TM_1600,
                      VALE_CALC=890.629587045,
                      VALE_REFE=902.0,),
                   _F(NOEUD='N163',
                      REFERENCE='ANALYTIQUE',
                      NOM_CMP='TEMP',
                      PRECISION=0.050000000000000003,
                      CHAM_GD=TM_1800,
                      VALE_CALC=915.687689433,
                      VALE_REFE=923.0,),
                   _F(NOEUD='N165',
                      REFERENCE='ANALYTIQUE',
                      NOM_CMP='TEMP',
                      PRECISION=0.050000000000000003,
                      CHAM_GD=TM_1800,
                      VALE_CALC=915.687655362,
                      VALE_REFE=923.0,),
                   _F(NOEUD='N166',
                      REFERENCE='ANALYTIQUE',
                      NOM_CMP='TEMP',
                      PRECISION=0.050000000000000003,
                      CHAM_GD=TM_1800,
                      VALE_CALC=915.687754879,
                      VALE_REFE=923.0,),
                   _F(NOEUD='N163',
                      REFERENCE='ANALYTIQUE',
                      NOM_CMP='TEMP',
                      PRECISION=0.050000000000000003,
                      CHAM_GD=TM_2000,
                      VALE_CALC=935.004234960,
                      VALE_REFE=942.0,),
                   _F(NOEUD='N167',
                      REFERENCE='ANALYTIQUE',
                      NOM_CMP='TEMP',
                      PRECISION=0.050000000000000003,
                      CHAM_GD=TM_2000,
                      VALE_CALC=935.004496028,
                      VALE_REFE=942.0,),
                   _F(NOEUD='N168',
                      REFERENCE='ANALYTIQUE',
                      NOM_CMP='TEMP',
                      PRECISION=0.050000000000000003,
                      CHAM_GD=TM_2000,
                      VALE_CALC=935.004427948,
                      VALE_REFE=942.0,),
                   _F(NOEUD='N163',
                      REFERENCE='ANALYTIQUE',
                      NOM_CMP='TEMP',
                      PRECISION=0.050000000000000003,
                      CHAM_GD=TM_2200,
                      VALE_CALC=949.895653416,
                      VALE_REFE=956.0,),
                   _F(NOEUD='N169',
                      REFERENCE='ANALYTIQUE',
                      NOM_CMP='TEMP',
                      PRECISION=0.050000000000000003,
                      CHAM_GD=TM_2200,
                      VALE_CALC=949.896016121,
                      VALE_REFE=956.0,),
                   _F(NOEUD='N170',
                      REFERENCE='ANALYTIQUE',
                      NOM_CMP='TEMP',
                      PRECISION=0.050000000000000003,
                      CHAM_GD=TM_2200,
                      VALE_CALC=949.895697146,
                      VALE_REFE=956.0,),
                   _F(NOEUD='N163',
                      REFERENCE='ANALYTIQUE',
                      NOM_CMP='TEMP',
                      PRECISION=0.050000000000000003,
                      CHAM_GD=TM_2400,
                      VALE_CALC=961.374921728,
                      VALE_REFE=962.0,),
                   _F(NOEUD='N171',
                      REFERENCE='ANALYTIQUE',
                      NOM_CMP='TEMP',
                      PRECISION=0.050000000000000003,
                      CHAM_GD=TM_2400,
                      VALE_CALC=961.374630854,
                      VALE_REFE=962.0,),
                   _F(NOEUD='N166',
                      REFERENCE='ANALYTIQUE',
                      NOM_CMP='TEMP',
                      PRECISION=0.050000000000000003,
                      CHAM_GD=TM_2400,
                      VALE_CALC=961.374951958,
                      VALE_REFE=962.0,),
                   ),
          )

#
# FIN ------------------------------------------------------------------
#

FIN()
#
#
