# MODIF  DATE 13/12/2011   AUTEUR PELLET J.PELLET 
# TITRE  PARALLELEPIPEDE SOUMIS A UNE DENSITE DE FLUX SUR SES FACES
#            CONFIGURATION MANAGEMENT OF EDF VERSION
# ======================================================================
# COPYRIGHT (C) 1991 - 2011  EDF R&D                  WWW.CODE-ASTER.ORG
# THIS PROGRAM IS FREE SOFTWARE; YOU CAN REDISTRIBUTE IT AND/OR MODIFY
# IT UNDER THE TERMS OF THE GNU GENERAL PUBLIC LICENSE AS PUBLISHED BY
# THE FREE SOFTWARE FOUNDATION; EITHER VERSION 2 OF THE LICENSE, OR   
# (AT YOUR OPTION) ANY LATER VERSION.                                 
#
# THIS PROGRAM IS DISTRIBUTED IN THE HOPE THAT IT WILL BE USEFUL, BUT 
# WITHOUT ANY WARRANTY; WITHOUT EVEN THE IMPLIED WARRANTY OF          
# MERCHANTABILITY OR FITNESS FOR A PARTICULAR PURPOSE. SEE THE GNU    
# GENERAL PUBLIC LICENSE FOR MORE DETAILS.                            
#
# YOU SHOULD HAVE RECEIVED A COPY OF THE GNU GENERAL PUBLIC LICENSE   
# ALONG WITH THIS PROGRAM; IF NOT, WRITE TO EDF R&D CODE_ASTER,       
#    1 AVENUE DU GENERAL DE GAULLE, 92141 CLAMART CEDEX, FRANCE.      
# ======================================================================
#
# MAILLES : HEXA8, PENTA6, QUAD4, TRIA3
#

DEBUT(  CODE=_F(  NOM = 'TTLV300A',NIV_PUB_WEB='INTERNET') )

#
# LECTURE DU MAILLAGE --------------------------------------------------
#


MAIL=LIRE_MAILLAGE( )

#
# DEFINITION DES CHARGEMENTS ET DU MATERIAU ----------------------------
#

# ----- MATERIAU


MATER=DEFI_MATERIAU(   THER=_F(  LAMBDA = 1.0,  RHO_CP = 1.0) )

#
# AFFECTATIONS: MATERIAU, MODELE, CHARGEMENT ---------------------------
#


CHMAT=AFFE_MATERIAU(   MAILLAGE=MAIL,
                           AFFE=_F(  TOUT = 'OUI',  MATER = MATER)
                        )

MOTH=AFFE_MODELE(     MAILLAGE=MAIL,
                           AFFE=_F(  TOUT = 'OUI',
                                  MODELISATION = '3D',
                                  PHENOMENE = 'THERMIQUE')
                        )

CHTH=AFFE_CHAR_THER(   MODELE=MOTH,
                            FLUX_REP=_F(  GROUP_MA = 'GRP_FLU',  FLUN = 0.5)
                         )

#
# DEFINITION DE LA STRATEGIE DE CALCUL --------------------------------
#


LTMPS=DEFI_LIST_REEL(   DEBUT=0.E0,INTERVALLE=(
                            _F(  JUSQU_A = 0.02,   NOMBRE = 4),
                            _F(  JUSQU_A = 0.06,   NOMBRE = 4),
                            _F(  JUSQU_A = 0.14,   NOMBRE = 4),
                            _F(  JUSQU_A = 0.26,   NOMBRE = 4),
                            _F(  JUSQU_A = 0.30,   NOMBRE = 1),
                            _F(  JUSQU_A = 0.60,   NOMBRE = 6),
                            _F(  JUSQU_A = 1.00,   NOMBRE = 4),
                            _F(  JUSQU_A = 10.00,   NOMBRE = 9))
                         )

#
# RESOLUTION ----------------------------------------------------------
#

TEMPE=THER_LINEAIRE(   MODELE=MOTH,
                           ETAT_INIT=_F(  VALE = 1.0),
                           INCREMENT=_F(  LIST_INST = LTMPS),
                           CHAM_MATER=CHMAT,
                           EXCIT=_F(  CHARGE = CHTH)
                        )

#
# ANALYSE DES RESULTATS -----------------------------------------------
#

TEMP_005=CREA_CHAMP(  OPERATION='EXTR', TYPE_CHAM='NOEU_TEMP_R',
NOM_CHAM='TEMP', RESULTAT=TEMPE,
                            INST=.05
                      )

TEMP_01=CREA_CHAMP(  OPERATION='EXTR', TYPE_CHAM='NOEU_TEMP_R',
NOM_CHAM='TEMP', RESULTAT=TEMPE,
                            INST=.1
                      )

TEMP_02=CREA_CHAMP(  OPERATION='EXTR', TYPE_CHAM='NOEU_TEMP_R',
NOM_CHAM='TEMP', RESULTAT=TEMPE,
                            INST=.2
                      )

TEMP_03=CREA_CHAMP(  OPERATION='EXTR', TYPE_CHAM='NOEU_TEMP_R',
NOM_CHAM='TEMP', RESULTAT=TEMPE,
                            INST=.3
                      )

TEMP_05=CREA_CHAMP(  OPERATION='EXTR', TYPE_CHAM='NOEU_TEMP_R',
NOM_CHAM='TEMP', RESULTAT=TEMPE,
                            INST=.5
                      )

TEMP_1=CREA_CHAMP(  OPERATION='EXTR', TYPE_CHAM='NOEU_TEMP_R',
NOM_CHAM='TEMP', RESULTAT=TEMPE,
                            INST=1.0
                      )

TEMP_5=CREA_CHAMP(  OPERATION='EXTR', TYPE_CHAM='NOEU_TEMP_R',
NOM_CHAM='TEMP', RESULTAT=TEMPE,
                            INST=5.
                      )

TEMP_10=CREA_CHAMP(  OPERATION='EXTR', TYPE_CHAM='NOEU_TEMP_R',
NOM_CHAM='TEMP', RESULTAT=TEMPE,
                            INST=10.
                      )

TEST_RESU(CHAM_NO=(

 

_F( CHAM_GD = TEMP_005, NOEUD = 'N2', NOM_CMP = 'TEMP', VALE = 1.0001,  PRECISION = 1.E-2),
_F( CHAM_GD = TEMP_01,  NOEUD = 'N2', NOM_CMP = 'TEMP', VALE = 1.00398, PRECISION = 1.E-2),
_F( CHAM_GD = TEMP_02,  NOEUD = 'N2', NOM_CMP = 'TEMP', VALE = 1.03331, PRECISION = 1.E-2),
_F( CHAM_GD = TEMP_03,  NOEUD = 'N2', NOM_CMP = 'TEMP', VALE = 1.08533, PRECISION = 1.E-2),
_F( CHAM_GD = TEMP_05,  NOEUD = 'N2', NOM_CMP = 'TEMP', VALE = 1.23086, PRECISION = 1.E-2),
_F( CHAM_GD = TEMP_1,   NOEUD = 'N2', NOM_CMP = 'TEMP', VALE = 1.69979, PRECISION = 1.E-2),
_F( CHAM_GD = TEMP_5,   NOEUD = 'N2', NOM_CMP = 'TEMP', VALE = 5.9292,  PRECISION = 1.E-2),
_F( CHAM_GD = TEMP_10,  NOEUD = 'N2', NOM_CMP = 'TEMP', VALE = 11.242,  PRECISION = 1.E-2),

_F( CHAM_GD = TEMP_005, NOEUD = 'N409', NOM_CMP = 'TEMP', VALE = 1.0083, PRECISION = 1.E-2),
_F( CHAM_GD = TEMP_01, NOEUD = 'N409', NOM_CMP = 'TEMP', VALE = 1.03819, PRECISION = 1.E-2),
_F( CHAM_GD = TEMP_02, NOEUD = 'N409', NOM_CMP = 'TEMP', VALE = 1.12556, PRECISION = 1.E-2),
_F( CHAM_GD = TEMP_03, NOEUD = 'N409', NOM_CMP = 'TEMP', VALE = 1.22594, PRECISION = 1.E-2),
_F( CHAM_GD = TEMP_05, NOEUD = 'N409', NOM_CMP = 'TEMP', VALE = 1.43580, PRECISION = 1.E-2),
_F( CHAM_GD = TEMP_1,  NOEUD = 'N409', NOM_CMP = 'TEMP', VALE = 1.96667, PRECISION = 1.E-2),
_F( CHAM_GD = TEMP_5,  NOEUD = 'N409', NOM_CMP = 'TEMP', VALE = 6.2167,  PRECISION = 1.E-2),
_F( CHAM_GD = TEMP_10, NOEUD = 'N409', NOM_CMP = 'TEMP', VALE = 11.529,  PRECISION = 1.E-2),

_F( CHAM_GD = TEMP_005, NOEUD = 'N814', NOM_CMP = 'TEMP', VALE = 1.3785, PRECISION = 1.E-2),
_F( CHAM_GD = TEMP_01,  NOEUD = 'N814', NOM_CMP = 'TEMP', VALE = 1.5352, PRECISION = 1.E-2),
_F( CHAM_GD = TEMP_02,  NOEUD = 'N814', NOM_CMP = 'TEMP', VALE = 1.7572, PRECISION = 1.E-2),
_F( CHAM_GD = TEMP_03,  NOEUD = 'N814', NOM_CMP = 'TEMP', VALE = 1.9295, PRECISION = 1.E-2),
_F( CHAM_GD = TEMP_05,  NOEUD = 'N814', NOM_CMP = 'TEMP', VALE = 2.2142, PRECISION = 1.E-2),
_F( CHAM_GD = TEMP_1,   NOEUD = 'N814', NOM_CMP = 'TEMP', VALE = 2.8085, PRECISION = 1.E-2),
_F( CHAM_GD = TEMP_5,   NOEUD = 'N814', NOM_CMP = 'TEMP', VALE = 7.0792, PRECISION = 1.E-2),
_F( CHAM_GD = TEMP_10,  NOEUD = 'N814', NOM_CMP = 'TEMP', VALE = 12.392, PRECISION = 1.E-2))

          )

#
# FIN ------------------------------------------------------------------
#

FIN()
#
#
