# MODIF  DATE 10/10/2012   AUTEUR COURTOIS M.COURTOIS 
# TITRE ECHANGE DE CHALEUR PAR CONVECTION SUR UNE SPHERE
# ttlv01d.para = tps_job 60 mem_job 256Mo ncpus 1 liste_test V
#            CONFIGURATION MANAGEMENT OF EDF VERSION
# ======================================================================
# COPYRIGHT (C) 1991 - 2012  EDF R&D                  WWW.CODE-ASTER.ORG
# THIS PROGRAM IS FREE SOFTWARE; YOU CAN REDISTRIBUTE IT AND/OR MODIFY
# IT UNDER THE TERMS OF THE GNU GENERAL PUBLIC LICENSE AS PUBLISHED BY
# THE FREE SOFTWARE FOUNDATION; EITHER VERSION 2 OF THE LICENSE, OR   
# (AT YOUR OPTION) ANY LATER VERSION.                                 
#
# THIS PROGRAM IS DISTRIBUTED IN THE HOPE THAT IT WILL BE USEFUL, BUT 
# WITHOUT ANY WARRANTY; WITHOUT EVEN THE IMPLIED WARRANTY OF          
# MERCHANTABILITY OR FITNESS FOR A PARTICULAR PURPOSE. SEE THE GNU    
# GENERAL PUBLIC LICENSE FOR MORE DETAILS.                            
#
# YOU SHOULD HAVE RECEIVED A COPY OF THE GNU GENERAL PUBLIC LICENSE   
# ALONG WITH THIS PROGRAM; IF NOT, WRITE TO EDF R&D CODE_ASTER,       
#    1 AVENUE DU GENERAL DE GAULLE, 92141 CLAMART CEDEX, FRANCE.      
# ======================================================================
#
# MAILLES : QUAD9 , TRIA6  (ET SEG3)
#

DEBUT(  CODE=_F(  NOM = 'TTLV01D',NIV_PUB_WEB='INTERNET') )

#
# LECTURE DU MAILLAGE --------------------------------------------------
#


MAIL=LIRE_MAILLAGE(FORMAT='MED', )

#
# DEFINITION DES CHARGEMENTS ET DU MATERIAU ----------------------------
#

# ----- MATERIAU


MATER=DEFI_MATERIAU(   THER=_F(  LAMBDA = 48.822,  RHO_CP = 4816800.) )

#
# AFFECTATIONS: MATERIAU, MODELE, CHARGEMENT ---------------------------
#


CHMAT=AFFE_MATERIAU(   MAILLAGE=MAIL,
                           AFFE=_F(  TOUT = 'OUI',  MATER = MATER)
                        )

MOTH=AFFE_MODELE(     MAILLAGE=MAIL,
                           AFFE=_F(  TOUT = 'OUI',
                                  MODELISATION = 'AXIS',
                                  PHENOMENE = 'THERMIQUE')
                        )

CHTH=AFFE_CHAR_THER(   MODELE=MOTH,
                             ECHANGE=_F(  GROUP_MA = 'FACE_EXT',
                                       COEF_H = 232.5,  TEMP_EXT = 1000.)
                         )

#
# DEFINITION DE LA STRATEGIE DE CALCUL ---------------------------------
#


LTMPS=DEFI_LIST_REEL(   DEBUT=0.,INTERVALLE=(
                            _F(  JUSQU_A = 100.,   NOMBRE = 8),
                            _F(  JUSQU_A = 300.,   NOMBRE = 8),
                            _F(  JUSQU_A = 700.,   NOMBRE = 8),
                            _F(  JUSQU_A = 1400.,   NOMBRE = 7),
                            _F(  JUSQU_A = 2400.,   NOMBRE = 5))
                         )

#
# RESOLUTION -----------------------------------------------------------
#

TEMPE=THER_LINEAIRE(  MODELE=MOTH,
                          ETAT_INIT=_F(  VALE = 20.E0),
                          INCREMENT=_F(  LIST_INST = LTMPS),
                          CHAM_MATER=CHMAT,
                          EXCIT=_F( CHARGE = CHTH)
                       )

#
# ANALYSE DES RESULTATS ------------------------------------------------
#

TM_0400=CREA_CHAMP(  OPERATION='EXTR', TYPE_CHAM='NOEU_TEMP_R',
NOM_CHAM='TEMP', RESULTAT=TEMPE,
                            INST=400. )

TM_0600=CREA_CHAMP(  OPERATION='EXTR', TYPE_CHAM='NOEU_TEMP_R',
NOM_CHAM='TEMP', RESULTAT=TEMPE,
                            INST=600. )

TM_0800=CREA_CHAMP(  OPERATION='EXTR', TYPE_CHAM='NOEU_TEMP_R',
NOM_CHAM='TEMP', RESULTAT=TEMPE,
                            INST=800. )

TM_1000=CREA_CHAMP(  OPERATION='EXTR', TYPE_CHAM='NOEU_TEMP_R',
NOM_CHAM='TEMP', RESULTAT=TEMPE,
                            INST=1000. )

TM_1200=CREA_CHAMP(  OPERATION='EXTR', TYPE_CHAM='NOEU_TEMP_R',
NOM_CHAM='TEMP', RESULTAT=TEMPE,
                            INST=1200. )

TM_1400=CREA_CHAMP(  OPERATION='EXTR', TYPE_CHAM='NOEU_TEMP_R',
NOM_CHAM='TEMP', RESULTAT=TEMPE,
                            INST=1400. )

TM_1600=CREA_CHAMP(  OPERATION='EXTR', TYPE_CHAM='NOEU_TEMP_R',
NOM_CHAM='TEMP', RESULTAT=TEMPE,
                            INST=1600. )

TM_1800=CREA_CHAMP(  OPERATION='EXTR', TYPE_CHAM='NOEU_TEMP_R',
NOM_CHAM='TEMP', RESULTAT=TEMPE,
                            INST=1800. )

TM_2000=CREA_CHAMP(  OPERATION='EXTR', TYPE_CHAM='NOEU_TEMP_R',
NOM_CHAM='TEMP', RESULTAT=TEMPE,
                            INST=2000. )

TM_2200=CREA_CHAMP(  OPERATION='EXTR', TYPE_CHAM='NOEU_TEMP_R',
NOM_CHAM='TEMP', RESULTAT=TEMPE,
                            INST=2200. )

TM_2400=CREA_CHAMP(  OPERATION='EXTR', TYPE_CHAM='NOEU_TEMP_R',
NOM_CHAM='TEMP', RESULTAT=TEMPE,
                            INST=2400. )

TEST_RESU(CHAM_NO=(_F(NOEUD='N1',
                      REFERENCE='ANALYTIQUE',
                      NOM_CMP='TEMP',
                      PRECISION=0.050000000000000003,
                      CHAM_GD=TM_0400,
                      VALE_CALC=341.067986595,
                      VALE_REFE=334.0,),
                   _F(NOEUD='N1',
                      NOM_CMP='TEMP',
                      CHAM_GD=TM_0400,
                      VALE_CALC=341.09872905965,
                      TOLE_MACHINE=1.E-4,),
                   _F(NOEUD='N1',
                      REFERENCE='ANALYTIQUE',
                      NOM_CMP='TEMP',
                      PRECISION=0.050000000000000003,
                      CHAM_GD=TM_0600,
                      VALE_CALC=493.120214207,
                      VALE_REFE=500.0,),
                   _F(NOEUD='N1',
                      NOM_CMP='TEMP',
                      CHAM_GD=TM_0600,
                      VALE_CALC=493.14382313596002,
                      TOLE_MACHINE=1.E-4,),
                   _F(NOEUD='N1',
                      REFERENCE='ANALYTIQUE',
                      NOM_CMP='TEMP',
                      PRECISION=0.050000000000000003,
                      CHAM_GD=TM_0800,
                      VALE_CALC=609.929253559,
                      VALE_REFE=618.0,),
                   _F(NOEUD='N1',
                      NOM_CMP='TEMP',
                      CHAM_GD=TM_0800,
                      VALE_CALC=609.94629006353,
                      TOLE_MACHINE=1.E-4,),
                   _F(NOEUD='N1',
                      REFERENCE='ANALYTIQUE',
                      NOM_CMP='TEMP',
                      PRECISION=0.050000000000000003,
                      CHAM_GD=TM_1000,
                      VALE_CALC=699.682029037,
                      VALE_REFE=706.0,),
                   _F(NOEUD='N1',
                      NOM_CMP='TEMP',
                      CHAM_GD=TM_1000,
                      VALE_CALC=699.69520770507995,
                      TOLE_MACHINE=1.E-4,),
                   _F(NOEUD='N1',
                      REFERENCE='ANALYTIQUE',
                      NOM_CMP='TEMP',
                      PRECISION=0.050000000000000003,
                      CHAM_GD=TM_1200,
                      VALE_CALC=768.783268054,
                      VALE_REFE=774.0,),
                   _F(NOEUD='N1',
                      NOM_CMP='TEMP',
                      CHAM_GD=TM_1200,
                      VALE_CALC=768.79345540792997,
                      TOLE_MACHINE=1.E-4,),
                   _F(NOEUD='N1',
                      REFERENCE='ANALYTIQUE',
                      NOM_CMP='TEMP',
                      PRECISION=0.050000000000000003,
                      CHAM_GD=TM_1400,
                      VALE_CALC=821.984755159,
                      VALE_REFE=828.0,),
                   _F(NOEUD='N1',
                      NOM_CMP='TEMP',
                      CHAM_GD=TM_1400,
                      VALE_CALC=821.99262532677994,
                      TOLE_MACHINE=1.E-4,),
                   _F(NOEUD='N1',
                      REFERENCE='ANALYTIQUE',
                      NOM_CMP='TEMP',
                      PRECISION=0.050000000000000003,
                      CHAM_GD=TM_1600,
                      VALE_CALC=862.769618663,
                      VALE_REFE=872.0,),
                   _F(NOEUD='N1',
                      NOM_CMP='TEMP',
                      CHAM_GD=TM_1600,
                      VALE_CALC=862.77512992955997,
                      TOLE_MACHINE=1.E-4,),
                   _F(NOEUD='N1',
                      REFERENCE='ANALYTIQUE',
                      NOM_CMP='TEMP',
                      PRECISION=0.050000000000000003,
                      CHAM_GD=TM_1800,
                      VALE_CALC=894.210310019,
                      VALE_REFE=902.0,),
                   _F(NOEUD='N1',
                      NOM_CMP='TEMP',
                      CHAM_GD=TM_1800,
                      VALE_CALC=894.21501035756,
                      TOLE_MACHINE=1.E-4,),
                   _F(NOEUD='N1',
                      REFERENCE='ANALYTIQUE',
                      NOM_CMP='TEMP',
                      PRECISION=0.050000000000000003,
                      CHAM_GD=TM_2000,
                      VALE_CALC=918.447661544,
                      VALE_REFE=923.0,),
                   _F(NOEUD='N1',
                      NOM_CMP='TEMP',
                      CHAM_GD=TM_2000,
                      VALE_CALC=918.45091786212004,
                      TOLE_MACHINE=1.E-4,),
                   _F(NOEUD='N1',
                      REFERENCE='ANALYTIQUE',
                      NOM_CMP='TEMP',
                      PRECISION=0.050000000000000003,
                      CHAM_GD=TM_2200,
                      VALE_CALC=937.132021944,
                      VALE_REFE=942.0,),
                   _F(NOEUD='N1',
                      NOM_CMP='TEMP',
                      CHAM_GD=TM_2200,
                      VALE_CALC=937.13483023874005,
                      TOLE_MACHINE=1.E-4,),
                   _F(NOEUD='N1',
                      REFERENCE='ANALYTIQUE',
                      NOM_CMP='TEMP',
                      PRECISION=0.050000000000000003,
                      CHAM_GD=TM_2400,
                      VALE_CALC=951.535630501,
                      VALE_REFE=956.0,),
                   _F(NOEUD='N1',
                      NOM_CMP='TEMP',
                      CHAM_GD=TM_2400,
                      VALE_CALC=951.53755339314,
                      TOLE_MACHINE=1.E-4,),
                   _F(NOEUD='N207',
                      REFERENCE='ANALYTIQUE',
                      NOM_CMP='TEMP',
                      PRECISION=0.050000000000000003,
                      CHAM_GD=TM_0400,
                      VALE_CALC=474.778284023,
                      VALE_REFE=461.0,),
                   _F(NOEUD='N207',
                      NOM_CMP='TEMP',
                      CHAM_GD=TM_0400,
                      VALE_CALC=474.77828514902001,
                      TOLE_MACHINE=1.E-4,),
                   _F(NOEUD='N216',
                      REFERENCE='ANALYTIQUE',
                      NOM_CMP='TEMP',
                      PRECISION=0.050000000000000003,
                      CHAM_GD=TM_0400,
                      VALE_CALC=474.778282661,
                      VALE_REFE=461.0,),
                   _F(NOEUD='N216',
                      NOM_CMP='TEMP',
                      CHAM_GD=TM_0400,
                      VALE_CALC=474.77828378741998,
                      TOLE_MACHINE=1.E-4,),
                   _F(NOEUD='N211',
                      REFERENCE='ANALYTIQUE',
                      NOM_CMP='TEMP',
                      PRECISION=0.050000000000000003,
                      CHAM_GD=TM_0400,
                      VALE_CALC=474.778233512,
                      VALE_REFE=461.0,),
                   _F(NOEUD='N211',
                      NOM_CMP='TEMP',
                      CHAM_GD=TM_0400,
                      VALE_CALC=474.77824259302002,
                      TOLE_MACHINE=1.E-4,),
                   _F(NOEUD='N65',
                      REFERENCE='ANALYTIQUE',
                      NOM_CMP='TEMP',
                      PRECISION=0.050000000000000003,
                      CHAM_GD=TM_0400,
                      VALE_CALC=474.778241467,
                      VALE_REFE=461.0,),
                   _F(NOEUD='N65',
                      NOM_CMP='TEMP',
                      CHAM_GD=TM_0400,
                      VALE_CALC=474.77824259302002,
                      TOLE_MACHINE=1.E-4,),
                   _F(NOEUD='N207',
                      REFERENCE='ANALYTIQUE',
                      NOM_CMP='TEMP',
                      PRECISION=0.050000000000000003,
                      CHAM_GD=TM_0600,
                      VALE_CALC=596.014785139,
                      VALE_REFE=608.0,),
                   _F(NOEUD='N207',
                      NOM_CMP='TEMP',
                      CHAM_GD=TM_0600,
                      VALE_CALC=596.01478569722997,
                      TOLE_MACHINE=1.E-4,),
                   _F(NOEUD='N208',
                      REFERENCE='ANALYTIQUE',
                      NOM_CMP='TEMP',
                      PRECISION=0.050000000000000003,
                      CHAM_GD=TM_0600,
                      VALE_CALC=596.014800908,
                      VALE_REFE=608.0,),
                   _F(NOEUD='N208',
                      NOM_CMP='TEMP',
                      CHAM_GD=TM_0600,
                      VALE_CALC=596.01480146597999,
                      TOLE_MACHINE=1.E-4,),
                   _F(NOEUD='N209',
                      REFERENCE='ANALYTIQUE',
                      NOM_CMP='TEMP',
                      PRECISION=0.050000000000000003,
                      CHAM_GD=TM_0600,
                      VALE_CALC=596.014760820,
                      VALE_REFE=608.0,),
                   _F(NOEUD='N209',
                      NOM_CMP='TEMP',
                      CHAM_GD=TM_0600,
                      VALE_CALC=596.01476137864995,
                      TOLE_MACHINE=1.E-4,),
                   _F(NOEUD='N207',
                      REFERENCE='ANALYTIQUE',
                      NOM_CMP='TEMP',
                      PRECISION=0.050000000000000003,
                      CHAM_GD=TM_0800,
                      VALE_CALC=689.117977041,
                      VALE_REFE=696.0,),
                   _F(NOEUD='N207',
                      NOM_CMP='TEMP',
                      CHAM_GD=TM_0800,
                      VALE_CALC=689.11797721551,
                      TOLE_MACHINE=1.E-4,),
                   _F(NOEUD='N210',
                      REFERENCE='ANALYTIQUE',
                      NOM_CMP='TEMP',
                      PRECISION=0.050000000000000003,
                      CHAM_GD=TM_0800,
                      VALE_CALC=689.117970710,
                      VALE_REFE=696.0,),
                   _F(NOEUD='N210',
                      NOM_CMP='TEMP',
                      CHAM_GD=TM_0800,
                      VALE_CALC=689.11797088392996,
                      TOLE_MACHINE=1.E-4,),
                   _F(NOEUD='N211',
                      REFERENCE='ANALYTIQUE',
                      NOM_CMP='TEMP',
                      PRECISION=0.050000000000000003,
                      CHAM_GD=TM_0800,
                      VALE_CALC=689.117947130,
                      VALE_REFE=696.0,),
                   _F(NOEUD='N211',
                      NOM_CMP='TEMP',
                      CHAM_GD=TM_0800,
                      VALE_CALC=689.11794730367001,
                      TOLE_MACHINE=1.E-4,),
                   _F(NOEUD='N207',
                      REFERENCE='ANALYTIQUE',
                      NOM_CMP='TEMP',
                      PRECISION=0.050000000000000003,
                      CHAM_GD=TM_1000,
                      VALE_CALC=760.649530219,
                      VALE_REFE=774.0,),
                   _F(NOEUD='N207',
                      NOM_CMP='TEMP',
                      CHAM_GD=TM_1000,
                      VALE_CALC=760.64953015641004,
                      TOLE_MACHINE=1.E-4,),
                   _F(NOEUD='N212',
                      REFERENCE='ANALYTIQUE',
                      NOM_CMP='TEMP',
                      PRECISION=0.050000000000000003,
                      CHAM_GD=TM_1000,
                      VALE_CALC=760.649543039,
                      VALE_REFE=774.0,),
                   _F(NOEUD='N212',
                      NOM_CMP='TEMP',
                      CHAM_GD=TM_1000,
                      VALE_CALC=760.64954297706004,
                      TOLE_MACHINE=1.E-4,),
                   _F(NOEUD='N213',
                      REFERENCE='ANALYTIQUE',
                      NOM_CMP='TEMP',
                      PRECISION=0.050000000000000003,
                      CHAM_GD=TM_1000,
                      VALE_CALC=760.649504114,
                      VALE_REFE=774.0,),
                   _F(NOEUD='N213',
                      NOM_CMP='TEMP',
                      CHAM_GD=TM_1000,
                      VALE_CALC=760.64950405210004,
                      TOLE_MACHINE=1.E-4,),
                   _F(NOEUD='N207',
                      REFERENCE='ANALYTIQUE',
                      NOM_CMP='TEMP',
                      PRECISION=0.050000000000000003,
                      CHAM_GD=TM_1200,
                      VALE_CALC=815.722311787,
                      VALE_REFE=828.0,),
                   _F(NOEUD='N207',
                      NOM_CMP='TEMP',
                      CHAM_GD=TM_1200,
                      VALE_CALC=815.72231159916998,
                      TOLE_MACHINE=1.E-4,),
                   _F(NOEUD='N214',
                      REFERENCE='ANALYTIQUE',
                      NOM_CMP='TEMP',
                      PRECISION=0.050000000000000003,
                      CHAM_GD=TM_1200,
                      VALE_CALC=815.722305430,
                      VALE_REFE=828.0,),
                   _F(NOEUD='N214',
                      NOM_CMP='TEMP',
                      CHAM_GD=TM_1200,
                      VALE_CALC=815.72230524250995,
                      TOLE_MACHINE=1.E-4,),
                   _F(NOEUD='N215',
                      REFERENCE='ANALYTIQUE',
                      NOM_CMP='TEMP',
                      PRECISION=0.050000000000000003,
                      CHAM_GD=TM_1200,
                      VALE_CALC=815.722291891,
                      VALE_REFE=828.0,),
                   _F(NOEUD='N215',
                      NOM_CMP='TEMP',
                      CHAM_GD=TM_1200,
                      VALE_CALC=815.72229170324999,
                      TOLE_MACHINE=1.E-4,),
                   _F(NOEUD='N207',
                      REFERENCE='ANALYTIQUE',
                      NOM_CMP='TEMP',
                      PRECISION=0.050000000000000003,
                      CHAM_GD=TM_1400,
                      VALE_CALC=858.123299899,
                      VALE_REFE=868.0,),
                   _F(NOEUD='N207',
                      NOM_CMP='TEMP',
                      CHAM_GD=TM_1400,
                      VALE_CALC=858.12329964714002,
                      TOLE_MACHINE=1.E-4,),
                   _F(NOEUD='N216',
                      REFERENCE='ANALYTIQUE',
                      NOM_CMP='TEMP',
                      PRECISION=0.050000000000000003,
                      CHAM_GD=TM_1400,
                      VALE_CALC=858.123299526,
                      VALE_REFE=868.0,),
                   _F(NOEUD='N216',
                      NOM_CMP='TEMP',
                      CHAM_GD=TM_1400,
                      VALE_CALC=858.12329927328005,
                      TOLE_MACHINE=1.E-4,),
                   _F(NOEUD='N211',
                      REFERENCE='ANALYTIQUE',
                      NOM_CMP='TEMP',
                      PRECISION=0.050000000000000003,
                      CHAM_GD=TM_1400,
                      VALE_CALC=858.123286249,
                      VALE_REFE=868.0,),
                   _F(NOEUD='N211',
                      NOM_CMP='TEMP',
                      CHAM_GD=TM_1400,
                      VALE_CALC=858.12328599667001,
                      TOLE_MACHINE=1.E-4,),
                   _F(NOEUD='N65',
                      REFERENCE='ANALYTIQUE',
                      NOM_CMP='TEMP',
                      PRECISION=0.050000000000000003,
                      CHAM_GD=TM_1400,
                      VALE_CALC=858.123288393,
                      VALE_REFE=868.0,),
                   _F(NOEUD='N65',
                      NOM_CMP='TEMP',
                      CHAM_GD=TM_1400,
                      VALE_CALC=858.12328814064006,
                      TOLE_MACHINE=1.E-4,),
                   _F(NOEUD='N207',
                      REFERENCE='ANALYTIQUE',
                      NOM_CMP='TEMP',
                      PRECISION=0.050000000000000003,
                      CHAM_GD=TM_1600,
                      VALE_CALC=890.628002091,
                      VALE_REFE=902.0,),
                   _F(NOEUD='N207',
                      NOM_CMP='TEMP',
                      CHAM_GD=TM_1600,
                      VALE_CALC=890.62800179870999,
                      TOLE_MACHINE=1.E-4,),
                   _F(NOEUD='N208',
                      REFERENCE='ANALYTIQUE',
                      NOM_CMP='TEMP',
                      PRECISION=0.050000000000000003,
                      CHAM_GD=TM_1600,
                      VALE_CALC=890.628006358,
                      VALE_REFE=902.0,),
                   _F(NOEUD='N208',
                      NOM_CMP='TEMP',
                      CHAM_GD=TM_1600,
                      VALE_CALC=890.62800606625001,
                      TOLE_MACHINE=1.E-4,),
                   _F(NOEUD='N209',
                      REFERENCE='ANALYTIQUE',
                      NOM_CMP='TEMP',
                      PRECISION=0.050000000000000003,
                      CHAM_GD=TM_1600,
                      VALE_CALC=890.627995503,
                      VALE_REFE=902.0,),
                   _F(NOEUD='N209',
                      NOM_CMP='TEMP',
                      CHAM_GD=TM_1600,
                      VALE_CALC=890.62799521112004,
                      TOLE_MACHINE=1.E-4,),
                   _F(NOEUD='N207',
                      REFERENCE='ANALYTIQUE',
                      NOM_CMP='TEMP',
                      PRECISION=0.050000000000000003,
                      CHAM_GD=TM_1800,
                      VALE_CALC=915.686468505,
                      VALE_REFE=923.0,),
                   _F(NOEUD='N207',
                      NOM_CMP='TEMP',
                      CHAM_GD=TM_1800,
                      VALE_CALC=915.68646821408004,
                      TOLE_MACHINE=1.E-4,),
                   _F(NOEUD='N210',
                      REFERENCE='ANALYTIQUE',
                      NOM_CMP='TEMP',
                      PRECISION=0.050000000000000003,
                      CHAM_GD=TM_1800,
                      VALE_CALC=915.686466788,
                      VALE_REFE=923.0,),
                   _F(NOEUD='N210',
                      NOM_CMP='TEMP',
                      CHAM_GD=TM_1800,
                      VALE_CALC=915.68646649668005,
                      TOLE_MACHINE=1.E-4,),
                   _F(NOEUD='N211',
                      REFERENCE='ANALYTIQUE',
                      NOM_CMP='TEMP',
                      PRECISION=0.050000000000000003,
                      CHAM_GD=TM_1800,
                      VALE_CALC=915.686460393,
                      VALE_REFE=923.0,),
                   _F(NOEUD='N211',
                      NOM_CMP='TEMP',
                      CHAM_GD=TM_1800,
                      VALE_CALC=915.68646010197995,
                      TOLE_MACHINE=1.E-4,),
                   _F(NOEUD='N207',
                      REFERENCE='ANALYTIQUE',
                      NOM_CMP='TEMP',
                      PRECISION=0.050000000000000003,
                      CHAM_GD=TM_2000,
                      VALE_CALC=935.003160058,
                      VALE_REFE=942.0,),
                   _F(NOEUD='N207',
                      NOM_CMP='TEMP',
                      CHAM_GD=TM_2000,
                      VALE_CALC=935.00315979310005,
                      TOLE_MACHINE=1.E-4,),
                   _F(NOEUD='N212',
                      REFERENCE='ANALYTIQUE',
                      NOM_CMP='TEMP',
                      PRECISION=0.050000000000000003,
                      CHAM_GD=TM_2000,
                      VALE_CALC=935.003163542,
                      VALE_REFE=942.0,),
                   _F(NOEUD='N212',
                      NOM_CMP='TEMP',
                      CHAM_GD=TM_2000,
                      VALE_CALC=935.00316327742996,
                      TOLE_MACHINE=1.E-4,),
                   _F(NOEUD='N213',
                      REFERENCE='ANALYTIQUE',
                      NOM_CMP='TEMP',
                      PRECISION=0.050000000000000003,
                      CHAM_GD=TM_2000,
                      VALE_CALC=935.003152969,
                      VALE_REFE=942.0,),
                   _F(NOEUD='N213',
                      NOM_CMP='TEMP',
                      CHAM_GD=TM_2000,
                      VALE_CALC=935.00315270404997,
                      TOLE_MACHINE=1.E-4,),
                   _F(NOEUD='N207',
                      REFERENCE='ANALYTIQUE',
                      NOM_CMP='TEMP',
                      PRECISION=0.050000000000000003,
                      CHAM_GD=TM_2200,
                      VALE_CALC=949.894721671,
                      VALE_REFE=956.0,),
                   _F(NOEUD='N207',
                      NOM_CMP='TEMP',
                      CHAM_GD=TM_2200,
                      VALE_CALC=949.89472142808995,
                      TOLE_MACHINE=1.E-4,),
                   _F(NOEUD='N214',
                      REFERENCE='ANALYTIQUE',
                      NOM_CMP='TEMP',
                      PRECISION=0.050000000000000003,
                      CHAM_GD=TM_2200,
                      VALE_CALC=949.894719942,
                      VALE_REFE=956.0,),
                   _F(NOEUD='N214',
                      NOM_CMP='TEMP',
                      CHAM_GD=TM_2200,
                      VALE_CALC=949.89471969954002,
                      TOLE_MACHINE=1.E-4,),
                   _F(NOEUD='N215',
                      REFERENCE='ANALYTIQUE',
                      NOM_CMP='TEMP',
                      PRECISION=0.050000000000000003,
                      CHAM_GD=TM_2200,
                      VALE_CALC=949.894716261,
                      VALE_REFE=956.0,),
                   _F(NOEUD='N215',
                      NOM_CMP='TEMP',
                      CHAM_GD=TM_2200,
                      VALE_CALC=949.89471601828996,
                      TOLE_MACHINE=1.E-4,),
                   _F(NOEUD='N207',
                      REFERENCE='ANALYTIQUE',
                      NOM_CMP='TEMP',
                      PRECISION=0.050000000000000003,
                      CHAM_GD=TM_2400,
                      VALE_CALC=961.374124000,
                      VALE_REFE=962.0,),
                   _F(NOEUD='N207',
                      NOM_CMP='TEMP',
                      CHAM_GD=TM_2400,
                      VALE_CALC=961.37412378675003,
                      TOLE_MACHINE=1.E-4,),
                   _F(NOEUD='N216',
                      REFERENCE='ANALYTIQUE',
                      NOM_CMP='TEMP',
                      PRECISION=0.050000000000000003,
                      CHAM_GD=TM_2400,
                      VALE_CALC=961.374123899,
                      VALE_REFE=962.0,),
                   _F(NOEUD='N216',
                      NOM_CMP='TEMP',
                      CHAM_GD=TM_2400,
                      VALE_CALC=961.37412368519995,
                      TOLE_MACHINE=1.E-4,),
                   _F(NOEUD='N211',
                      REFERENCE='ANALYTIQUE',
                      NOM_CMP='TEMP',
                      PRECISION=0.050000000000000003,
                      CHAM_GD=TM_2400,
                      VALE_CALC=961.374120284,
                      VALE_REFE=962.0,),
                   _F(NOEUD='N211',
                      NOM_CMP='TEMP',
                      CHAM_GD=TM_2400,
                      VALE_CALC=961.37412007035005,
                      TOLE_MACHINE=1.E-4,),
                   ),
          )

#
# FIN ------------------------------------------------------------------
#

FIN()
#
#
