# MODIF  DATE 10/10/2012   AUTEUR COURTOIS M.COURTOIS 
# TITRE  PARALLELEPIPEDE SOUMIS A UNE DENSITE DE FLUX SUR SES FACES
# ttlv300a.para = tps_job 60 mem_job 256Mo ncpus 1 liste_test V
#            CONFIGURATION MANAGEMENT OF EDF VERSION
# ======================================================================
# COPYRIGHT (C) 1991 - 2012  EDF R&D                  WWW.CODE-ASTER.ORG
# THIS PROGRAM IS FREE SOFTWARE; YOU CAN REDISTRIBUTE IT AND/OR MODIFY
# IT UNDER THE TERMS OF THE GNU GENERAL PUBLIC LICENSE AS PUBLISHED BY
# THE FREE SOFTWARE FOUNDATION; EITHER VERSION 2 OF THE LICENSE, OR   
# (AT YOUR OPTION) ANY LATER VERSION.                                 
#
# THIS PROGRAM IS DISTRIBUTED IN THE HOPE THAT IT WILL BE USEFUL, BUT 
# WITHOUT ANY WARRANTY; WITHOUT EVEN THE IMPLIED WARRANTY OF          
# MERCHANTABILITY OR FITNESS FOR A PARTICULAR PURPOSE. SEE THE GNU    
# GENERAL PUBLIC LICENSE FOR MORE DETAILS.                            
#
# YOU SHOULD HAVE RECEIVED A COPY OF THE GNU GENERAL PUBLIC LICENSE   
# ALONG WITH THIS PROGRAM; IF NOT, WRITE TO EDF R&D CODE_ASTER,       
#    1 AVENUE DU GENERAL DE GAULLE, 92141 CLAMART CEDEX, FRANCE.      
# ======================================================================
#
# MAILLES : HEXA8, PENTA6, QUAD4, TRIA3
#

DEBUT(  CODE=_F(  NOM = 'TTLV300A',NIV_PUB_WEB='INTERNET') )

#
# LECTURE DU MAILLAGE --------------------------------------------------
#


MAIL=LIRE_MAILLAGE(FORMAT='MED', )

#
# DEFINITION DES CHARGEMENTS ET DU MATERIAU ----------------------------
#

# ----- MATERIAU


MATER=DEFI_MATERIAU(   THER=_F(  LAMBDA = 1.0,  RHO_CP = 1.0) )

#
# AFFECTATIONS: MATERIAU, MODELE, CHARGEMENT ---------------------------
#


CHMAT=AFFE_MATERIAU(   MAILLAGE=MAIL,
                           AFFE=_F(  TOUT = 'OUI',  MATER = MATER)
                        )

MOTH=AFFE_MODELE(     MAILLAGE=MAIL,
                           AFFE=_F(  TOUT = 'OUI',
                                  MODELISATION = '3D',
                                  PHENOMENE = 'THERMIQUE')
                        )

CHTH=AFFE_CHAR_THER(   MODELE=MOTH,
                            FLUX_REP=_F(  GROUP_MA = 'GRP_FLU',  FLUN = 0.5)
                         )

#
# DEFINITION DE LA STRATEGIE DE CALCUL --------------------------------
#


LTMPS=DEFI_LIST_REEL(   DEBUT=0.E0,INTERVALLE=(
                            _F(  JUSQU_A = 0.02,   NOMBRE = 4),
                            _F(  JUSQU_A = 0.06,   NOMBRE = 4),
                            _F(  JUSQU_A = 0.14,   NOMBRE = 4),
                            _F(  JUSQU_A = 0.26,   NOMBRE = 4),
                            _F(  JUSQU_A = 0.30,   NOMBRE = 1),
                            _F(  JUSQU_A = 0.60,   NOMBRE = 6),
                            _F(  JUSQU_A = 1.00,   NOMBRE = 4),
                            _F(  JUSQU_A = 10.00,   NOMBRE = 9))
                         )

#
# RESOLUTION ----------------------------------------------------------
#

TEMPE=THER_LINEAIRE(   MODELE=MOTH,
                           ETAT_INIT=_F(  VALE = 1.0),
                           INCREMENT=_F(  LIST_INST = LTMPS),
                           CHAM_MATER=CHMAT,
                           EXCIT=_F(  CHARGE = CHTH)
                        )

#
# ANALYSE DES RESULTATS -----------------------------------------------
#

TEMP_005=CREA_CHAMP(  OPERATION='EXTR', TYPE_CHAM='NOEU_TEMP_R',
NOM_CHAM='TEMP', RESULTAT=TEMPE,
                            INST=.05
                      )

TEMP_01=CREA_CHAMP(  OPERATION='EXTR', TYPE_CHAM='NOEU_TEMP_R',
NOM_CHAM='TEMP', RESULTAT=TEMPE,
                            INST=.1
                      )

TEMP_02=CREA_CHAMP(  OPERATION='EXTR', TYPE_CHAM='NOEU_TEMP_R',
NOM_CHAM='TEMP', RESULTAT=TEMPE,
                            INST=.2
                      )

TEMP_03=CREA_CHAMP(  OPERATION='EXTR', TYPE_CHAM='NOEU_TEMP_R',
NOM_CHAM='TEMP', RESULTAT=TEMPE,
                            INST=.3
                      )

TEMP_05=CREA_CHAMP(  OPERATION='EXTR', TYPE_CHAM='NOEU_TEMP_R',
NOM_CHAM='TEMP', RESULTAT=TEMPE,
                            INST=.5
                      )

TEMP_1=CREA_CHAMP(  OPERATION='EXTR', TYPE_CHAM='NOEU_TEMP_R',
NOM_CHAM='TEMP', RESULTAT=TEMPE,
                            INST=1.0
                      )

TEMP_5=CREA_CHAMP(  OPERATION='EXTR', TYPE_CHAM='NOEU_TEMP_R',
NOM_CHAM='TEMP', RESULTAT=TEMPE,
                            INST=5.
                      )

TEMP_10=CREA_CHAMP(  OPERATION='EXTR', TYPE_CHAM='NOEU_TEMP_R',
NOM_CHAM='TEMP', RESULTAT=TEMPE,
                            INST=10.
                      )

TEST_RESU(CHAM_NO=(_F(NOEUD='N2',
                      NOM_CMP='TEMP',
                      PRECISION=1.E-2,
                      CHAM_GD=TEMP_005,
                      VALE_CALC=1.000004427,
                      VALE_REFE=1.0001,
                      REFERENCE='NON_DEFINI',),
                   _F(NOEUD='N2',
                      NOM_CMP='TEMP',
                      PRECISION=1.E-2,
                      CHAM_GD=TEMP_01,
                      VALE_CALC=1.003171847,
                      VALE_REFE=1.0039800000000001,
                      REFERENCE='NON_DEFINI',),
                   _F(NOEUD='N2',
                      NOM_CMP='TEMP',
                      PRECISION=1.E-2,
                      CHAM_GD=TEMP_02,
                      VALE_CALC=1.031268733,
                      VALE_REFE=1.03331,
                      REFERENCE='NON_DEFINI',),
                   _F(NOEUD='N2',
                      NOM_CMP='TEMP',
                      PRECISION=1.E-2,
                      CHAM_GD=TEMP_03,
                      VALE_CALC=1.082272595,
                      VALE_REFE=1.0853299999999999,
                      REFERENCE='NON_DEFINI',),
                   _F(NOEUD='N2',
                      NOM_CMP='TEMP',
                      PRECISION=1.E-2,
                      CHAM_GD=TEMP_05,
                      VALE_CALC=1.226613414,
                      VALE_REFE=1.2308600000000001,
                      REFERENCE='NON_DEFINI',),
                   _F(NOEUD='N2',
                      NOM_CMP='TEMP',
                      PRECISION=1.E-2,
                      CHAM_GD=TEMP_1,
                      VALE_CALC=1.694508828,
                      VALE_REFE=1.6997899999999999,
                      REFERENCE='NON_DEFINI',),
                   _F(NOEUD='N2',
                      NOM_CMP='TEMP',
                      PRECISION=1.E-2,
                      CHAM_GD=TEMP_5,
                      VALE_CALC=5.923387992,
                      VALE_REFE=5.9291999999999998,
                      REFERENCE='NON_DEFINI',),
                   _F(NOEUD='N2',
                      NOM_CMP='TEMP',
                      PRECISION=1.E-2,
                      CHAM_GD=TEMP_10,
                      VALE_CALC=11.235881158,
                      VALE_REFE=11.242000000000001,
                      REFERENCE='NON_DEFINI',),
                   _F(NOEUD='N409',
                      NOM_CMP='TEMP',
                      PRECISION=1.E-2,
                      CHAM_GD=TEMP_005,
                      VALE_CALC=1.006471799,
                      VALE_REFE=1.0083,
                      REFERENCE='NON_DEFINI',),
                   _F(NOEUD='N409',
                      NOM_CMP='TEMP',
                      PRECISION=1.E-2,
                      CHAM_GD=TEMP_01,
                      VALE_CALC=1.035733827,
                      VALE_REFE=1.0381899999999999,
                      REFERENCE='NON_DEFINI',),
                   _F(NOEUD='N409',
                      NOM_CMP='TEMP',
                      PRECISION=1.E-2,
                      CHAM_GD=TEMP_02,
                      VALE_CALC=1.122915489,
                      VALE_REFE=1.1255599999999999,
                      REFERENCE='NON_DEFINI',),
                   _F(NOEUD='N409',
                      NOM_CMP='TEMP',
                      PRECISION=1.E-2,
                      CHAM_GD=TEMP_03,
                      VALE_CALC=1.223273830,
                      VALE_REFE=1.22594,
                      REFERENCE='NON_DEFINI',),
                   _F(NOEUD='N409',
                      NOM_CMP='TEMP',
                      PRECISION=1.E-2,
                      CHAM_GD=TEMP_05,
                      VALE_CALC=1.433099457,
                      VALE_REFE=1.4358,
                      REFERENCE='NON_DEFINI',),
                   _F(NOEUD='N409',
                      NOM_CMP='TEMP',
                      PRECISION=1.E-2,
                      CHAM_GD=TEMP_1,
                      VALE_CALC=1.963910940,
                      VALE_REFE=1.9666699999999999,
                      REFERENCE='NON_DEFINI',),
                   _F(NOEUD='N409',
                      NOM_CMP='TEMP',
                      PRECISION=1.E-2,
                      CHAM_GD=TEMP_5,
                      VALE_CALC=6.213897124,
                      VALE_REFE=6.2167000000000003,
                      REFERENCE='NON_DEFINI',),
                   _F(NOEUD='N409',
                      NOM_CMP='TEMP',
                      PRECISION=1.E-2,
                      CHAM_GD=TEMP_10,
                      VALE_CALC=11.526397176,
                      VALE_REFE=11.529,
                      REFERENCE='NON_DEFINI',),
                   _F(NOEUD='N814',
                      NOM_CMP='TEMP',
                      PRECISION=1.E-2,
                      CHAM_GD=TEMP_005,
                      VALE_CALC=1.372582762,
                      VALE_REFE=1.3785000000000001,
                      REFERENCE='NON_DEFINI',),
                   _F(NOEUD='N814',
                      NOM_CMP='TEMP',
                      PRECISION=1.E-2,
                      CHAM_GD=TEMP_01,
                      VALE_CALC=1.530753710,
                      VALE_REFE=1.5351999999999999,
                      REFERENCE='NON_DEFINI',),
                   _F(NOEUD='N814',
                      NOM_CMP='TEMP',
                      PRECISION=1.E-2,
                      CHAM_GD=TEMP_02,
                      VALE_CALC=1.753576781,
                      VALE_REFE=1.7572000000000001,
                      REFERENCE='NON_DEFINI',),
                   _F(NOEUD='N814',
                      NOM_CMP='TEMP',
                      PRECISION=1.E-2,
                      CHAM_GD=TEMP_03,
                      VALE_CALC=1.926099543,
                      VALE_REFE=1.9295,
                      REFERENCE='NON_DEFINI',),
                   _F(NOEUD='N814',
                      NOM_CMP='TEMP',
                      PRECISION=1.E-2,
                      CHAM_GD=TEMP_05,
                      VALE_CALC=2.210961318,
                      VALE_REFE=2.2141999999999999,
                      REFERENCE='NON_DEFINI',),
                   _F(NOEUD='N814',
                      NOM_CMP='TEMP',
                      PRECISION=1.E-2,
                      CHAM_GD=TEMP_1,
                      VALE_CALC=2.805361199,
                      VALE_REFE=2.8085,
                      REFERENCE='NON_DEFINI',),
                   _F(NOEUD='N814',
                      NOM_CMP='TEMP',
                      PRECISION=1.E-2,
                      CHAM_GD=TEMP_5,
                      VALE_CALC=7.076187541,
                      VALE_REFE=7.0792000000000002,
                      REFERENCE='NON_DEFINI',),
                   _F(NOEUD='N814',
                      NOM_CMP='TEMP',
                      PRECISION=1.E-2,
                      CHAM_GD=TEMP_10,
                      VALE_CALC=12.388694926,
                      VALE_REFE=12.391999999999999,
                      REFERENCE='NON_DEFINI',),
                   ),
          )

#
# FIN ------------------------------------------------------------------
#

FIN()
#
#
