# TITRE : CHOC THERMIQUE DANS UN TUYAU AVEC CONDITION D'ECHANGE
# ======================================================================
# COPYRIGHT (C) 1991 - 2012  EDF R&D                  WWW.CODE-ASTER.ORG
# THIS PROGRAM IS FREE SOFTWARE; YOU CAN REDISTRIBUTE IT AND/OR MODIFY
# IT UNDER THE TERMS OF THE GNU GENERAL PUBLIC LICENSE AS PUBLISHED BY
# THE FREE SOFTWARE FOUNDATION; EITHER VERSION 2 OF THE LICENSE, OR
# (AT YOUR OPTION) ANY LATER VERSION.
#
# THIS PROGRAM IS DISTRIBUTED IN THE HOPE THAT IT WILL BE USEFUL, BUT
# WITHOUT ANY WARRANTY; WITHOUT EVEN THE IMPLIED WARRANTY OF
# MERCHANTABILITY OR FITNESS FOR A PARTICULAR PURPOSE. SEE THE GNU
# GENERAL PUBLIC LICENSE FOR MORE DETAILS.
#
# YOU SHOULD HAVE RECEIVED A COPY OF THE GNU GENERAL PUBLIC LICENSE
# ALONG WITH THIS PROGRAM; IF NOT, WRITE TO EDF R&D CODE_ASTER,
#    1 AVENUE DU GENERAL DE GAULLE, 92141 CLAMART CEDEX, FRANCE.
# ======================================================================
# -------------------------------------------------------------
# MODELISATION TRIA6, QUAD9


DEBUT(CODE=_F(NIV_PUB_WEB='INTERNET'), DEBUG=_F(SDVERI='OUI'))

MAILQ8=LIRE_MAILLAGE(FORMAT='MED', )

MAILQ8=DEFI_GROUP( reuse=MAILQ8,        MAILLAGE=MAILQ8,
                          CREA_GROUP_NO=_F(  TOUT_GROUP_MA = 'OUI')
                      )

MA=CREA_MAILLAGE(       MAILLAGE=MAILQ8,
                        MODI_MAILLE=_F(  OPTION = 'QUAD8_9',
                                      TOUT = 'OUI')
                     )

MOTHER=AFFE_MODELE(   MAILLAGE=MA,
                           
                             AFFE=_F(  TOUT = 'OUI',
                                    PHENOMENE = 'THERMIQUE',
                                    MODELISATION = 'AXIS_DIAG')
                      )

INOX=DEFI_MATERIAU(    THER=_F( LAMBDA = 19.97E-3,
#                                             W/MM.DEGC
                                RHO_CP = 4.89488E-3),
#                                             J/MM3.DEGC
                           ELAS=_F( E = 174700.,
                                 NU = 0.3,
                                 ALPHA = 17.83E-6)
                      )

CHMAT=AFFE_MATERIAU(    MAILLAGE=MA,
                               AFFE=_F(  TOUT = 'OUI',
                                      MATER = INOX,
                                      )
                       )

PAROI=DEFI_CONSTANTE(   VALE=40000.E-6 )

#                                             W/MM.MM.DEGC


TP_FLUID=DEFI_FONCTION(       NOM_PARA='INST',
                                     VALE=(  0., 289.,
                                            12.,  20., ),
                             PROL_GAUCHE='CONSTANT',
                              PROL_DROITE='CONSTANT'
                          )

CHAR_TH=AFFE_CHAR_THER_F(    MODELE=MOTHER,
                               ECHANGE=_F(  GROUP_MA = 'ECHANGE',
                                         COEF_H = PAROI,
                                         TEMP_EXT = TP_FLUID)
                             )

LISTTH=DEFI_LIST_REEL(         DEBUT=0.,INTERVALLE=(

                       _F(  JUSQU_A = 12.,  NOMBRE = 12),
                       _F(  JUSQU_A = 20.,  NOMBRE = 2),
                       _F(  JUSQU_A = 100.,  NOMBRE = 4),
                       _F(  JUSQU_A = 200.,  NOMBRE = 2),
                       _F(  JUSQU_A = 400.,  NOMBRE = 2),
                       _F(  JUSQU_A = 2000.,  NOMBRE = 8))
                          )

LIST=DEFI_LIST_REEL(   VALE=( 12.,  100.,  600.,  2000., )  )

TEMPE=THER_LINEAIRE(        MODELE=MOTHER,
                           CHAM_MATER=CHMAT,
                                EXCIT=_F( CHARGE = CHAR_TH),
                            ETAT_INIT=_F( VALE = 289.),
                            INCREMENT=_F( LIST_INST = LISTTH),
                            ARCHIVAGE=_F( LIST_INST = LIST)
                        )

TEMP_1=CREA_CHAMP(  OPERATION='EXTR', TYPE_CHAM='NOEU_TEMP_R',
NOM_CHAM='TEMP', RESULTAT=TEMPE,
          INST=12.   )

TEMP_2=CREA_CHAMP(  OPERATION='EXTR', TYPE_CHAM='NOEU_TEMP_R',
NOM_CHAM='TEMP', RESULTAT=TEMPE,
          INST=100.  )

TEMP_3=CREA_CHAMP(  OPERATION='EXTR', TYPE_CHAM='NOEU_TEMP_R',
NOM_CHAM='TEMP', RESULTAT=TEMPE,
          INST=600.  )

TEMP_4=CREA_CHAMP(  OPERATION='EXTR', TYPE_CHAM='NOEU_TEMP_R',
NOM_CHAM='TEMP', RESULTAT=TEMPE,
          INST=2000. )

TEST_RESU(CHAM_NO=(_F(NOEUD='N25',
                      NOM_CMP='TEMP',
                      PRECISION=1.E-2,
                      CHAM_GD=TEMP_1,
                      VALE_CALC=286.802151585,
                      VALE_REFE=288.63999999999999,
                      REFERENCE='NON_DEFINI',),
                   _F(NOEUD='N25',
                      NOM_CMP='TEMP',
                      PRECISION=1.E-2,
                      CHAM_GD=TEMP_2,
                      VALE_CALC=202.249164747,
                      VALE_REFE=202.75999999999999,
                      REFERENCE='NON_DEFINI',),
                   _F(NOEUD='N25',
                      NOM_CMP='TEMP',
                      PRECISION=1.E-2,
                      CHAM_GD=TEMP_3,
                      VALE_CALC=92.954991306,
                      VALE_REFE=93.027000000000001,
                      REFERENCE='NON_DEFINI',),
                   _F(NOEUD='N25',
                      NOM_CMP='TEMP',
                      PRECISION=1.E-2,
                      CHAM_GD=TEMP_4,
                      VALE_CALC=29.524121312,
                      VALE_REFE=29.419,
                      REFERENCE='NON_DEFINI',),
                   _F(NOEUD='N28',
                      NOM_CMP='TEMP',
                      PRECISION=1.E-2,
                      CHAM_GD=TEMP_1,
                      VALE_CALC=288.991841193,
                      VALE_REFE=289.0,
                      REFERENCE='NON_DEFINI',),
                   _F(NOEUD='N28',
                      NOM_CMP='TEMP',
                      PRECISION=1.E-2,
                      CHAM_GD=TEMP_2,
                      VALE_CALC=273.353109758,
                      VALE_REFE=275.04000000000002,
                      REFERENCE='NON_DEFINI',),
                   _F(NOEUD='N28',
                      NOM_CMP='TEMP',
                      PRECISION=1.E-2,
                      CHAM_GD=TEMP_3,
                      VALE_CALC=142.992626714,
                      VALE_REFE=143.0,
                      REFERENCE='NON_DEFINI',),
                   _F(NOEUD='N28',
                      NOM_CMP='TEMP',
                      PRECISION=1.E-2,
                      CHAM_GD=TEMP_4,
                      VALE_CALC=36.050255778,
                      VALE_REFE=35.857999999999997,
                      REFERENCE='NON_DEFINI',),
                   _F(NOEUD='N9',
                      NOM_CMP='TEMP',
                      PRECISION=1.E-2,
                      CHAM_GD=TEMP_1,
                      VALE_CALC=287.131514525,
                      VALE_REFE=288.63999999999999,
                      REFERENCE='NON_DEFINI',),
                   _F(NOEUD='N9',
                      NOM_CMP='TEMP',
                      PRECISION=0.02,
                      CHAM_GD=TEMP_2,
                      VALE_CALC=205.352175736,
                      VALE_REFE=202.75999999999999,
                      REFERENCE='NON_DEFINI',),
                   _F(NOEUD='N9',
                      NOM_CMP='TEMP',
                      PRECISION=1.E-2,
                      CHAM_GD=TEMP_3,
                      VALE_CALC=93.377919272,
                      VALE_REFE=93.027000000000001,
                      REFERENCE='NON_DEFINI',),
                   _F(NOEUD='N9',
                      NOM_CMP='TEMP',
                      PRECISION=1.E-2,
                      CHAM_GD=TEMP_4,
                      VALE_CALC=29.579576962,
                      VALE_REFE=29.419,
                      REFERENCE='NON_DEFINI',),
                   _F(NOEUD='N16',
                      NOM_CMP='TEMP',
                      PRECISION=1.E-2,
                      CHAM_GD=TEMP_1,
                      VALE_CALC=288.990586823,
                      VALE_REFE=289.0,
                      REFERENCE='NON_DEFINI',),
                   _F(NOEUD='N16',
                      NOM_CMP='TEMP',
                      PRECISION=1.E-2,
                      CHAM_GD=TEMP_2,
                      VALE_CALC=272.645591029,
                      VALE_REFE=275.04000000000002,
                      REFERENCE='NON_DEFINI',),
                   _F(NOEUD='N16',
                      NOM_CMP='TEMP',
                      PRECISION=1.E-2,
                      CHAM_GD=TEMP_3,
                      VALE_CALC=142.391034162,
                      VALE_REFE=143.0,
                      REFERENCE='NON_DEFINI',),
                   _F(NOEUD='N16',
                      NOM_CMP='TEMP',
                      PRECISION=1.E-2,
                      CHAM_GD=TEMP_4,
                      VALE_CALC=35.971744153,
                      VALE_REFE=35.857999999999997,
                      REFERENCE='NON_DEFINI',),
                   ),
          )

FIN()
#
