# MODIF  DATE 08/11/2007   AUTEUR SALMONA L.SALMONA 
# TITRE ECHANGE DE CHALEUR PAR CONVECTION SUR UNE SPHERE
#            CONFIGURATION MANAGEMENT OF EDF VERSION
# ======================================================================
# COPYRIGHT (C) 1991 - 2001  EDF R&D                  WWW.CODE-ASTER.ORG
# THIS PROGRAM IS FREE SOFTWARE; YOU CAN REDISTRIBUTE IT AND/OR MODIFY
# IT UNDER THE TERMS OF THE GNU GENERAL PUBLIC LICENSE AS PUBLISHED BY
# THE FREE SOFTWARE FOUNDATION; EITHER VERSION 2 OF THE LICENSE, OR   
# (AT YOUR OPTION) ANY LATER VERSION.                                 
#
# THIS PROGRAM IS DISTRIBUTED IN THE HOPE THAT IT WILL BE USEFUL, BUT 
# WITHOUT ANY WARRANTY; WITHOUT EVEN THE IMPLIED WARRANTY OF          
# MERCHANTABILITY OR FITNESS FOR A PARTICULAR PURPOSE. SEE THE GNU    
# GENERAL PUBLIC LICENSE FOR MORE DETAILS.                            
#
# YOU SHOULD HAVE RECEIVED A COPY OF THE GNU GENERAL PUBLIC LICENSE   
# ALONG WITH THIS PROGRAM; IF NOT, WRITE TO EDF R&D CODE_ASTER,       
#    1 AVENUE DU GENERAL DE GAULLE, 92141 CLAMART CEDEX, FRANCE.      
# ======================================================================
#
# MAILLES : QUAD4 , TRIA3  (ET SEG2)
#

DEBUT(  CODE=_F(  NOM = 'TTLV01B',NIV_PUB_WEB='INTERNET') )

#
# LECTURE DU MAILLAGE --------------------------------------------------
#


MAIL=LIRE_MAILLAGE( )

#
# DEFINITION DES CHARGEMENTS ET DU MATERIAU ----------------------------
#

# ----- MATERIAU


MATER=DEFI_MATERIAU(   THER=_F(  LAMBDA = 48.822,  RHO_CP = 4816800.) )

#
# AFFECTATIONS: MATERIAU, MODELE, CHARGEMENT ---------------------------
#


CHMAT=AFFE_MATERIAU(   MAILLAGE=MAIL,
                           AFFE=_F(  TOUT = 'OUI',  MATER = MATER)
                        )

MOTH=AFFE_MODELE(     MAILLAGE=MAIL,
                           AFFE=_F(  TOUT = 'OUI',
                                  MODELISATION = 'AXIS',
                                  PHENOMENE = 'THERMIQUE')
                        )

CHTH=AFFE_CHAR_THER(   MODELE=MOTH,
                             ECHANGE=_F(  GROUP_MA = 'FACE_EXT',
                                       COEF_H = 232.5,  TEMP_EXT = 1000.)
                         )

#
# DEFINITION DE LA STRATEGIE DE CALCUL ---------------------------------
#


LTMPS=DEFI_LIST_REEL(   DEBUT=0.,INTERVALLE=(
                            _F(  JUSQU_A = 100.,   NOMBRE = 8),
                            _F(  JUSQU_A = 300.,   NOMBRE = 8),
                            _F(  JUSQU_A = 700.,   NOMBRE = 8),
                            _F(  JUSQU_A = 1400.,   NOMBRE = 7),
                            _F(  JUSQU_A = 2400.,   NOMBRE = 5))
                         )

#
# RESOLUTION -----------------------------------------------------------
#

TEMPE=THER_LINEAIRE(  MODELE=MOTH,
                          ETAT_INIT=_F(  VALE = 20.E0),
                          INCREMENT=_F(  LIST_INST = LTMPS),
                          CHAM_MATER=CHMAT,
                          EXCIT=_F( CHARGE = CHTH)
                       )

#
# ANALYSE DES RESULTATS ------------------------------------------------
#

TM_0400=CREA_CHAMP(  OPERATION='EXTR', TYPE_CHAM='NOEU_TEMP_R',
NOM_CHAM='TEMP', RESULTAT=TEMPE,
                            INST=400. )

TM_0600=CREA_CHAMP(  OPERATION='EXTR', TYPE_CHAM='NOEU_TEMP_R',
NOM_CHAM='TEMP', RESULTAT=TEMPE,
                            INST=600. )

TM_0800=CREA_CHAMP(  OPERATION='EXTR', TYPE_CHAM='NOEU_TEMP_R',
NOM_CHAM='TEMP', RESULTAT=TEMPE,
                            INST=800. )

TM_1000=CREA_CHAMP(  OPERATION='EXTR', TYPE_CHAM='NOEU_TEMP_R',
NOM_CHAM='TEMP', RESULTAT=TEMPE,
                            INST=1000. )

TM_1200=CREA_CHAMP(  OPERATION='EXTR', TYPE_CHAM='NOEU_TEMP_R',
NOM_CHAM='TEMP', RESULTAT=TEMPE,
                            INST=1200. )

TM_1400=CREA_CHAMP(  OPERATION='EXTR', TYPE_CHAM='NOEU_TEMP_R',
NOM_CHAM='TEMP', RESULTAT=TEMPE,
                            INST=1400. )

TM_1600=CREA_CHAMP(  OPERATION='EXTR', TYPE_CHAM='NOEU_TEMP_R',
NOM_CHAM='TEMP', RESULTAT=TEMPE,
                            INST=1600. )

TM_1800=CREA_CHAMP(  OPERATION='EXTR', TYPE_CHAM='NOEU_TEMP_R',
NOM_CHAM='TEMP', RESULTAT=TEMPE,
                            INST=1800. )

TM_2000=CREA_CHAMP(  OPERATION='EXTR', TYPE_CHAM='NOEU_TEMP_R',
NOM_CHAM='TEMP', RESULTAT=TEMPE,
                            INST=2000. )

TM_2200=CREA_CHAMP(  OPERATION='EXTR', TYPE_CHAM='NOEU_TEMP_R',
NOM_CHAM='TEMP', RESULTAT=TEMPE,
                            INST=2200. )

TM_2400=CREA_CHAMP(  OPERATION='EXTR', TYPE_CHAM='NOEU_TEMP_R',
NOM_CHAM='TEMP', RESULTAT=TEMPE,
                            INST=2400. )

TEST_RESU(CHAM_NO=(

   

# TEMPERATURE AU CENTRE : N1

_F( CHAM_GD = TM_0400,  NOEUD = 'N1', NOM_CMP = 'TEMP', VALE = 334.,  PRECISION = 5.E-2,
                                                   REFERENCE='ANALYTIQUE'),
_F( CHAM_GD = TM_0400,  NOEUD = 'N1', NOM_CMP = 'TEMP', VALE = 3.3994549466393E+02,  PRECISION = 1.E-4,
                                                   REFERENCE='NON_REGRESSION'),
_F( CHAM_GD = TM_0600,  NOEUD = 'N1', NOM_CMP = 'TEMP', VALE = 500.,  PRECISION = 5.E-2,
                                                   REFERENCE='ANALYTIQUE'),
_F( CHAM_GD = TM_0600,  NOEUD = 'N1', NOM_CMP = 'TEMP', VALE = 4.9247097915452E+02,  PRECISION = 1.E-4,
                                                   REFERENCE='NON_REGRESSION'),
_F( CHAM_GD = TM_0800,  NOEUD = 'N1', NOM_CMP = 'TEMP', VALE = 618.,  PRECISION = 5.E-2,
                                                   REFERENCE='ANALYTIQUE'),
_F( CHAM_GD = TM_0800,  NOEUD = 'N1', NOM_CMP = 'TEMP', VALE = 6.0959206763608E+02,  PRECISION = 1.E-4,
                                                   REFERENCE='NON_REGRESSION'),
_F( CHAM_GD = TM_1000,  NOEUD = 'N1', NOM_CMP = 'TEMP', VALE = 706.,  PRECISION = 5.E-2,
                                                   REFERENCE='ANALYTIQUE'),
_F( CHAM_GD = TM_1000,  NOEUD = 'N1', NOM_CMP = 'TEMP', VALE = 6.9954701688407E+02,  PRECISION = 1.E-4,
                                                   REFERENCE='NON_REGRESSION'),
_F( CHAM_GD = TM_1200,  NOEUD = 'N1', NOM_CMP = 'TEMP', VALE = 774.,  PRECISION = 5.E-2,
                                                   REFERENCE='ANALYTIQUE'),
_F( CHAM_GD = TM_1200,  NOEUD = 'N1', NOM_CMP = 'TEMP', VALE = 7.6877520350359E+02,  PRECISION = 1.E-4,
                                                   REFERENCE='NON_REGRESSION'),
_F( CHAM_GD = TM_1400,  NOEUD = 'N1', NOM_CMP = 'TEMP', VALE = 828.,  PRECISION = 5.E-2,
                                                   REFERENCE='ANALYTIQUE'),
_F( CHAM_GD = TM_1400,  NOEUD = 'N1', NOM_CMP = 'TEMP', VALE = 8.2205233595289E+02,  PRECISION = 1.E-4,
                                                   REFERENCE='NON_REGRESSION'),
_F( CHAM_GD = TM_1600,  NOEUD = 'N1', NOM_CMP = 'TEMP', VALE = 872.,  PRECISION = 5.E-2,
                                                   REFERENCE='ANALYTIQUE'),
_F( CHAM_GD = TM_1600,  NOEUD = 'N1', NOM_CMP = 'TEMP', VALE = 8.6287825995629E+02,  PRECISION = 1.E-4,
                                                   REFERENCE='NON_REGRESSION'),
_F( CHAM_GD = TM_1800,  NOEUD = 'N1', NOM_CMP = 'TEMP', VALE = 902.,  PRECISION = 5.E-2,
                                                   REFERENCE='ANALYTIQUE'),
_F( CHAM_GD = TM_1800,  NOEUD = 'N1', NOM_CMP = 'TEMP', VALE = 8.9433763202735E+02,  PRECISION = 1.E-4,
                                                   REFERENCE='NON_REGRESSION'),
_F( CHAM_GD = TM_2000,  NOEUD = 'N1', NOM_CMP = 'TEMP', VALE = 923.,  PRECISION = 5.E-2,
                                                   REFERENCE='ANALYTIQUE'),
_F( CHAM_GD = TM_2000,  NOEUD = 'N1', NOM_CMP = 'TEMP', VALE = 9.1857938777577E+02,  PRECISION = 1.E-4,
                                                   REFERENCE='NON_REGRESSION'),
_F( CHAM_GD = TM_2200,  NOEUD = 'N1', NOM_CMP = 'TEMP', VALE = 942.,  PRECISION = 5.E-2,
                                                   REFERENCE='ANALYTIQUE'),
_F( CHAM_GD = TM_2200,  NOEUD = 'N1', NOM_CMP = 'TEMP', VALE = 9.3725944049189E+02,  PRECISION = 1.E-4,
                                                   REFERENCE='NON_REGRESSION'),
_F( CHAM_GD = TM_2400,  NOEUD = 'N1', NOM_CMP = 'TEMP', VALE = 956.,  PRECISION = 5.E-2,
                                                   REFERENCE='ANALYTIQUE'),
_F( CHAM_GD = TM_2400,  NOEUD = 'N1', NOM_CMP = 'TEMP', VALE = 9.5165379251373E+02,  PRECISION = 1.E-4,
                                                   REFERENCE='NON_REGRESSION'),
#
# TEMPERATURES EN SURFACE : N56 N57 N58 N59 N60 ET N61

_F( CHAM_GD = TM_0400,  NOEUD = 'N56', NOM_CMP = 'TEMP', VALE = 461.,  PRECISION = 5.E-2,
                                                   REFERENCE='ANALYTIQUE'),
_F( CHAM_GD = TM_0400,  NOEUD = 'N56', NOM_CMP = 'TEMP', VALE = 4.7514365931158E+02,  PRECISION = 1.E-4,
                                                   REFERENCE='NON_REGRESSION'),
_F( CHAM_GD = TM_0400,  NOEUD = 'N61', NOM_CMP = 'TEMP', VALE = 461.,  PRECISION = 5.E-2,
                                                   REFERENCE='ANALYTIQUE'),
_F( CHAM_GD = TM_0400,  NOEUD = 'N61', NOM_CMP = 'TEMP', VALE = 4.7508805012047E+02,  PRECISION = 1.E-4,
                                                   REFERENCE='NON_REGRESSION'),
_F( CHAM_GD = TM_0400,  NOEUD = 'N59', NOM_CMP = 'TEMP', VALE = 461.,  PRECISION = 5.E-2,
                                                   REFERENCE='ANALYTIQUE'),
_F( CHAM_GD = TM_0400,  NOEUD = 'N59', NOM_CMP = 'TEMP', VALE = 4.7511993064006E+02,  PRECISION = 1.E-4,
                                                   REFERENCE='NON_REGRESSION'),
_F( CHAM_GD = TM_0600,  NOEUD = 'N56', NOM_CMP = 'TEMP', VALE = 608.,  PRECISION = 5.E-2,
                                                   REFERENCE='ANALYTIQUE'),
_F( CHAM_GD = TM_0600,  NOEUD = 'N56', NOM_CMP = 'TEMP', VALE = 5.9645650844374E+02,  PRECISION = 1.E-4,
                                                   REFERENCE='NON_REGRESSION'),
_F( CHAM_GD = TM_0600,  NOEUD = 'N57', NOM_CMP = 'TEMP', VALE = 608.,  PRECISION = 5.E-2,
                                                   REFERENCE='ANALYTIQUE'),
_F( CHAM_GD = TM_0600,  NOEUD = 'N57', NOM_CMP = 'TEMP', VALE = 5.9645157808842E+02,  PRECISION = 1.E-4,
                                                   REFERENCE='NON_REGRESSION'),
_F( CHAM_GD = TM_0800,  NOEUD = 'N56', NOM_CMP = 'TEMP', VALE = 696.,  PRECISION = 5.E-2,
                                                   REFERENCE='ANALYTIQUE'),
_F( CHAM_GD = TM_0800,  NOEUD = 'N56', NOM_CMP = 'TEMP', VALE = 6.8958173914159E+02,  PRECISION = 1.E-4,
                                                   REFERENCE='NON_REGRESSION'),
_F( CHAM_GD = TM_0800,  NOEUD = 'N58', NOM_CMP = 'TEMP', VALE = 696.,  PRECISION = 5.E-2,
                                                   REFERENCE='ANALYTIQUE'),
_F( CHAM_GD = TM_0800,  NOEUD = 'N58', NOM_CMP = 'TEMP', VALE = 6.8957344734559E+02,  PRECISION = 1.E-4,
                                                   REFERENCE='NON_REGRESSION'),
_F( CHAM_GD = TM_1000,  NOEUD = 'N56', NOM_CMP = 'TEMP', VALE = 774.,  PRECISION = 5.E-2,
                                                   REFERENCE='ANALYTIQUE'),
_F( CHAM_GD = TM_1000,  NOEUD = 'N56', NOM_CMP = 'TEMP', VALE = 7.6110603258428E+02,  PRECISION = 1.E-4,
                                                   REFERENCE='NON_REGRESSION'),
_F( CHAM_GD = TM_1000,  NOEUD = 'N59', NOM_CMP = 'TEMP', VALE = 774.,  PRECISION = 5.E-2,
                                                   REFERENCE='ANALYTIQUE'),
_F( CHAM_GD = TM_1000,  NOEUD = 'N59', NOM_CMP = 'TEMP', VALE = 7.6109523085861E+02,  PRECISION = 1.E-4,
                                                   REFERENCE='NON_REGRESSION'),
_F( CHAM_GD = TM_1200,  NOEUD = 'N56', NOM_CMP = 'TEMP', VALE = 828.,  PRECISION = 5.E-2,
                                                   REFERENCE='ANALYTIQUE'),
_F( CHAM_GD = TM_1200,  NOEUD = 'N56', NOM_CMP = 'TEMP', VALE = 8.1615022888901E+02,  PRECISION = 1.E-4,
                                                   REFERENCE='NON_REGRESSION'),
_F( CHAM_GD = TM_1200,  NOEUD = 'N60', NOM_CMP = 'TEMP', VALE = 828.,  PRECISION = 5.E-2,
                                                   REFERENCE='ANALYTIQUE'),
_F( CHAM_GD = TM_1200,  NOEUD = 'N60', NOM_CMP = 'TEMP', VALE = 8.1613735047609E+02,  PRECISION = 1.E-4,
                                                   REFERENCE='NON_REGRESSION'),
_F( CHAM_GD = TM_1400,  NOEUD = 'N56', NOM_CMP = 'TEMP', VALE = 868.,  PRECISION = 5.E-2,
                                                   REFERENCE='ANALYTIQUE'),
_F( CHAM_GD = TM_1400,  NOEUD = 'N56', NOM_CMP = 'TEMP', VALE = 8.5851154766401E+02,  PRECISION = 1.E-4,
                                                   REFERENCE='NON_REGRESSION'),
_F( CHAM_GD = TM_1400,  NOEUD = 'N61', NOM_CMP = 'TEMP', VALE = 868.,  PRECISION = 5.E-2,
                                                   REFERENCE='ANALYTIQUE'),
_F( CHAM_GD = TM_1400,  NOEUD = 'N61', NOM_CMP = 'TEMP', VALE = 8.5849655560514E+02,  PRECISION = 1.E-4,
                                                   REFERENCE='NON_REGRESSION'),
_F( CHAM_GD = TM_1400,  NOEUD = 'N59', NOM_CMP = 'TEMP', VALE = 868.,  PRECISION = 5.E-2,
                                                   REFERENCE='ANALYTIQUE'),
_F( CHAM_GD = TM_1400,  NOEUD = 'N59', NOM_CMP = 'TEMP', VALE = 8.5850515016908E+02,  PRECISION = 1.E-4,
                                                   REFERENCE='NON_REGRESSION'),
_F( CHAM_GD = TM_1600,  NOEUD = 'N56', NOM_CMP = 'TEMP', VALE = 902.,  PRECISION = 5.E-2,
                                                   REFERENCE='ANALYTIQUE'),
_F( CHAM_GD = TM_1600,  NOEUD = 'N56', NOM_CMP = 'TEMP', VALE = 8.9097274075169E+02,  PRECISION = 1.E-4,
                                                   REFERENCE='NON_REGRESSION'),
_F( CHAM_GD = TM_1600,  NOEUD = 'N57', NOM_CMP = 'TEMP', VALE = 902.,  PRECISION = 5.E-2,
                                                   REFERENCE='ANALYTIQUE'),
_F( CHAM_GD = TM_1600,  NOEUD = 'N57', NOM_CMP = 'TEMP', VALE = 8.9097140874136E+02,  PRECISION = 1.E-4,
                                                   REFERENCE='NON_REGRESSION'),
_F( CHAM_GD = TM_1800,  NOEUD = 'N56', NOM_CMP = 'TEMP', VALE = 923.,  PRECISION = 5.E-2,
                                                   REFERENCE='ANALYTIQUE'),
_F( CHAM_GD = TM_1800,  NOEUD = 'N56', NOM_CMP = 'TEMP', VALE = 9.1598650596048E+02,  PRECISION = 1.E-4,
                                                   REFERENCE='NON_REGRESSION'),
_F( CHAM_GD = TM_1800,  NOEUD = 'N58', NOM_CMP = 'TEMP', VALE = 923.,  PRECISION = 5.E-2,
                                                   REFERENCE='ANALYTIQUE'),
_F( CHAM_GD = TM_1800,  NOEUD = 'N58', NOM_CMP = 'TEMP', VALE = 9.1598426181187E+02,  PRECISION = 1.E-4,
                                                   REFERENCE='NON_REGRESSION'),
_F( CHAM_GD = TM_2000,  NOEUD = 'N56', NOM_CMP = 'TEMP', VALE = 942.,  PRECISION = 5.E-2,
                                                   REFERENCE='ANALYTIQUE'),
_F( CHAM_GD = TM_2000,  NOEUD = 'N56', NOM_CMP = 'TEMP', VALE = 9.3526142434985E+02,  PRECISION = 1.E-4,
                                                   REFERENCE='NON_REGRESSION'),
_F( CHAM_GD = TM_2000,  NOEUD = 'N59', NOM_CMP = 'TEMP', VALE = 942.,  PRECISION = 5.E-2,
                                                   REFERENCE='ANALYTIQUE'),
_F( CHAM_GD = TM_2000,  NOEUD = 'N59', NOM_CMP = 'TEMP', VALE = 9.3525849713901E+02,  PRECISION = 1.E-4,
                                                   REFERENCE='NON_REGRESSION'),
_F( CHAM_GD = TM_2200,  NOEUD = 'N56', NOM_CMP = 'TEMP', VALE = 956.,  PRECISION = 5.E-2,
                                                   REFERENCE='ANALYTIQUE'),
_F( CHAM_GD = TM_2200,  NOEUD = 'N56', NOM_CMP = 'TEMP', VALE = 9.5011418203676E+02,  PRECISION = 1.E-4,
                                                   REFERENCE='NON_REGRESSION'),
_F( CHAM_GD = TM_2200,  NOEUD = 'N60', NOM_CMP = 'TEMP', VALE = 956.,  PRECISION = 5.E-2,
                                                   REFERENCE='ANALYTIQUE'),
_F( CHAM_GD = TM_2200,  NOEUD = 'N60', NOM_CMP = 'TEMP', VALE = 9.5011068760801E+02,  PRECISION = 1.E-4,
                                                   REFERENCE='NON_REGRESSION'),
_F( CHAM_GD = TM_2400,  NOEUD = 'N56', NOM_CMP = 'TEMP', VALE = 962.,  PRECISION = 5.E-2,
                                                   REFERENCE='ANALYTIQUE'),
_F( CHAM_GD = TM_2400,  NOEUD = 'N56', NOM_CMP = 'TEMP', VALE = 9.6155930903742E+02,  PRECISION = 1.E-4,
                                                   REFERENCE='NON_REGRESSION'),
_F( CHAM_GD = TM_2400,  NOEUD = 'N61', NOM_CMP = 'TEMP', VALE = 962.,  PRECISION = 5.E-2,
                                                   REFERENCE='ANALYTIQUE'),
_F( CHAM_GD = TM_2400,  NOEUD = 'N61', NOM_CMP = 'TEMP', VALE = 9.6155523585723E+02,  PRECISION = 1.E-4,
                                                   REFERENCE='NON_REGRESSION'),
_F( CHAM_GD = TM_2400,  NOEUD = 'N59', NOM_CMP = 'TEMP', VALE = 962.,  PRECISION = 5.E-2,
                                                   REFERENCE='ANALYTIQUE'),
_F( CHAM_GD = TM_2400,  NOEUD = 'N59', NOM_CMP = 'TEMP', VALE = 9.6155757090847E+02,  PRECISION = 1.E-4,
                                                   REFERENCE='NON_REGRESSION'),)
        )

#
# FIN ------------------------------------------------------------------
#

FIN()
#
#
