# MODIF  DATE 13/12/2011   AUTEUR PELLET J.PELLET 
# TITRE ECHANGE DE CHALEUR PAR CONVECTION SUR UNE SPHERE
#            CONFIGURATION MANAGEMENT OF EDF VERSION
# ======================================================================
# COPYRIGHT (C) 1991 - 2011  EDF R&D                  WWW.CODE-ASTER.ORG
# THIS PROGRAM IS FREE SOFTWARE; YOU CAN REDISTRIBUTE IT AND/OR MODIFY
# IT UNDER THE TERMS OF THE GNU GENERAL PUBLIC LICENSE AS PUBLISHED BY
# THE FREE SOFTWARE FOUNDATION; EITHER VERSION 2 OF THE LICENSE, OR   
# (AT YOUR OPTION) ANY LATER VERSION.                                 
#
# THIS PROGRAM IS DISTRIBUTED IN THE HOPE THAT IT WILL BE USEFUL, BUT 
# WITHOUT ANY WARRANTY; WITHOUT EVEN THE IMPLIED WARRANTY OF          
# MERCHANTABILITY OR FITNESS FOR A PARTICULAR PURPOSE. SEE THE GNU    
# GENERAL PUBLIC LICENSE FOR MORE DETAILS.                            
#
# YOU SHOULD HAVE RECEIVED A COPY OF THE GNU GENERAL PUBLIC LICENSE   
# ALONG WITH THIS PROGRAM; IF NOT, WRITE TO EDF R&D CODE_ASTER,       
#    1 AVENUE DU GENERAL DE GAULLE, 92141 CLAMART CEDEX, FRANCE.      
# ======================================================================
#
# MAILLES : QUAD8 , TRIA6  (ET SEG3)
#

DEBUT(  CODE=_F(  NOM = 'TTLV01C',NIV_PUB_WEB='INTERNET') )

#
# LECTURE DU MAILLAGE --------------------------------------------------
#


MAIL=LIRE_MAILLAGE( )

#
# DEFINITION DES CHARGEMENTS ET DU MATERIAU ----------------------------
#

# ----- MATERIAU


MATER=DEFI_MATERIAU(   THER=_F(  LAMBDA = 48.822,  RHO_CP = 4816800.) )

#
# AFFECTATIONS: MATERIAU, MODELE, CHARGEMENT ---------------------------
#


CHMAT=AFFE_MATERIAU(   MAILLAGE=MAIL,
                           AFFE=_F(  TOUT = 'OUI',  MATER = MATER)
                        )

MOTH=AFFE_MODELE(     MAILLAGE=MAIL,
                           AFFE=_F(  TOUT = 'OUI',
                                  MODELISATION = 'AXIS',
                                  PHENOMENE = 'THERMIQUE')
                        )

CHTH=AFFE_CHAR_THER(   MODELE=MOTH,
                             ECHANGE=_F(  GROUP_MA = 'FACE_EXT',
                                       COEF_H = 232.5,  TEMP_EXT = 1000.)
                         )

#
# DEFINITION DE LA STRATEGIE DE CALCUL ---------------------------------
#


LTMPS=DEFI_LIST_REEL(   DEBUT=0.,INTERVALLE=(
                            _F(  JUSQU_A = 100.,   NOMBRE = 8),
                            _F(  JUSQU_A = 300.,   NOMBRE = 8),
                            _F(  JUSQU_A = 700.,   NOMBRE = 8),
                            _F(  JUSQU_A = 1400.,   NOMBRE = 7),
                            _F(  JUSQU_A = 2400.,   NOMBRE = 5))
                         )

#
# RESOLUTION -----------------------------------------------------------
#

TEMPE=THER_LINEAIRE(  MODELE=MOTH,
                          ETAT_INIT=_F(  VALE = 20.E0),
                          INCREMENT=_F(  LIST_INST = LTMPS),
                          CHAM_MATER=CHMAT,
                          EXCIT=_F( CHARGE = CHTH)
                       )

#
# ANALYSE DES RESULTATS ------------------------------------------------
#

TM_0400=CREA_CHAMP(  OPERATION='EXTR', TYPE_CHAM='NOEU_TEMP_R',
NOM_CHAM='TEMP', RESULTAT=TEMPE,
                            INST=400. )

TM_0600=CREA_CHAMP(  OPERATION='EXTR', TYPE_CHAM='NOEU_TEMP_R',
NOM_CHAM='TEMP', RESULTAT=TEMPE,
                            INST=600. )

TM_0800=CREA_CHAMP(  OPERATION='EXTR', TYPE_CHAM='NOEU_TEMP_R',
NOM_CHAM='TEMP', RESULTAT=TEMPE,
                            INST=800. )

TM_1000=CREA_CHAMP(  OPERATION='EXTR', TYPE_CHAM='NOEU_TEMP_R',
NOM_CHAM='TEMP', RESULTAT=TEMPE,
                            INST=1000. )

TM_1200=CREA_CHAMP(  OPERATION='EXTR', TYPE_CHAM='NOEU_TEMP_R',
NOM_CHAM='TEMP', RESULTAT=TEMPE,
                            INST=1200. )

TM_1400=CREA_CHAMP(  OPERATION='EXTR', TYPE_CHAM='NOEU_TEMP_R',
NOM_CHAM='TEMP', RESULTAT=TEMPE,
                            INST=1400. )

TM_1600=CREA_CHAMP(  OPERATION='EXTR', TYPE_CHAM='NOEU_TEMP_R',
NOM_CHAM='TEMP', RESULTAT=TEMPE,
                            INST=1600. )

TM_1800=CREA_CHAMP(  OPERATION='EXTR', TYPE_CHAM='NOEU_TEMP_R',
NOM_CHAM='TEMP', RESULTAT=TEMPE,
                            INST=1800. )

TM_2000=CREA_CHAMP(  OPERATION='EXTR', TYPE_CHAM='NOEU_TEMP_R',
NOM_CHAM='TEMP', RESULTAT=TEMPE,
                            INST=2000. )

TM_2200=CREA_CHAMP(  OPERATION='EXTR', TYPE_CHAM='NOEU_TEMP_R',
NOM_CHAM='TEMP', RESULTAT=TEMPE,
                            INST=2200. )

TM_2400=CREA_CHAMP(  OPERATION='EXTR', TYPE_CHAM='NOEU_TEMP_R',
NOM_CHAM='TEMP', RESULTAT=TEMPE,
                            INST=2400. )

TEST_RESU(CHAM_NO=(

   

# TEMPERATURE AU CENTRE : N1

_F( CHAM_GD = TM_0400,  NOEUD = 'N1', NOM_CMP = 'TEMP', VALE = 334.,  PRECISION = 5.E-2,
                                                   REFERENCE='ANALYTIQUE'),
_F( CHAM_GD = TM_0400,  NOEUD = 'N1', NOM_CMP = 'TEMP', VALE = 3.4110238472489E+02,  PRECISION = 1.E-4,
                                                   REFERENCE='NON_REGRESSION'),
_F( CHAM_GD = TM_0600,  NOEUD = 'N1', NOM_CMP = 'TEMP', VALE = 500.,  PRECISION = 5.E-2,
                                                   REFERENCE='ANALYTIQUE'),
_F( CHAM_GD = TM_0600,  NOEUD = 'N1', NOM_CMP = 'TEMP', VALE = 4.9314769595280E+02,  PRECISION = 1.E-4,
                                                   REFERENCE='NON_REGRESSION'),
_F( CHAM_GD = TM_0800,  NOEUD = 'N1', NOM_CMP = 'TEMP', VALE = 618.,  PRECISION = 5.E-2,
                                                   REFERENCE='ANALYTIQUE'),
_F( CHAM_GD = TM_0800,  NOEUD = 'N1', NOM_CMP = 'TEMP', VALE = 6.0995008348326E+02,  PRECISION = 1.E-4,
                                                   REFERENCE='NON_REGRESSION'),
_F( CHAM_GD = TM_1000,  NOEUD = 'N1', NOM_CMP = 'TEMP', VALE = 706.,  PRECISION = 5.E-2,
                                                   REFERENCE='ANALYTIQUE'),
_F( CHAM_GD = TM_1000,  NOEUD = 'N1', NOM_CMP = 'TEMP', VALE = 6.9969874922774E+02,  PRECISION = 1.E-4,
                                                   REFERENCE='NON_REGRESSION'),
_F( CHAM_GD = TM_1200,  NOEUD = 'N1', NOM_CMP = 'TEMP', VALE = 774.,  PRECISION = 5.E-2,
                                                   REFERENCE='ANALYTIQUE'),
_F( CHAM_GD = TM_1200,  NOEUD = 'N1', NOM_CMP = 'TEMP', VALE = 7.6879666017786E+02,  PRECISION = 1.E-4,
                                                   REFERENCE='NON_REGRESSION'),
_F( CHAM_GD = TM_1400,  NOEUD = 'N1', NOM_CMP = 'TEMP', VALE = 828.,  PRECISION = 5.E-2,
                                                   REFERENCE='ANALYTIQUE'),
_F( CHAM_GD = TM_1400,  NOEUD = 'N1', NOM_CMP = 'TEMP', VALE = 8.2199546085532E+02,  PRECISION = 1.E-4,
                                                   REFERENCE='NON_REGRESSION'),
_F( CHAM_GD = TM_1600,  NOEUD = 'N1', NOM_CMP = 'TEMP', VALE = 872.,  PRECISION = 5.E-2,
                                                   REFERENCE='ANALYTIQUE'),
_F( CHAM_GD = TM_1600,  NOEUD = 'N1', NOM_CMP = 'TEMP', VALE = 8.6277760036843E+02,  PRECISION = 1.E-4,
                                                   REFERENCE='NON_REGRESSION'),
_F( CHAM_GD = TM_1800,  NOEUD = 'N1', NOM_CMP = 'TEMP', VALE = 902.,  PRECISION = 5.E-2,
                                                   REFERENCE='ANALYTIQUE'),
_F( CHAM_GD = TM_1800,  NOEUD = 'N1', NOM_CMP = 'TEMP', VALE = 8.9421713077892E+02,  PRECISION = 1.E-4,
                                                   REFERENCE='NON_REGRESSION'),
_F( CHAM_GD = TM_2000,  NOEUD = 'N1', NOM_CMP = 'TEMP', VALE = 923.,  PRECISION = 5.E-2,
                                                   REFERENCE='ANALYTIQUE'),
_F( CHAM_GD = TM_2000,  NOEUD = 'N1', NOM_CMP = 'TEMP', VALE = 9.1845272150313E+02,  PRECISION = 1.E-4,
                                                   REFERENCE='NON_REGRESSION'),
_F( CHAM_GD = TM_2200,  NOEUD = 'N1', NOM_CMP = 'TEMP', VALE = 942.,  PRECISION = 5.E-2,
                                                   REFERENCE='ANALYTIQUE'),
_F( CHAM_GD = TM_2200,  NOEUD = 'N1', NOM_CMP = 'TEMP', VALE = 9.3713634907768E+02,  PRECISION = 1.E-4,
                                                   REFERENCE='NON_REGRESSION'),
_F( CHAM_GD = TM_2400,  NOEUD = 'N1', NOM_CMP = 'TEMP', VALE = 956.,  PRECISION = 5.E-2,
                                                   REFERENCE='ANALYTIQUE'),
_F( CHAM_GD = TM_2400,  NOEUD = 'N1', NOM_CMP = 'TEMP', VALE = 9.5153882462800E+02,  PRECISION = 1.E-4,
                                                   REFERENCE='NON_REGRESSION'),
#
# TEMPERATURES EN SURFACE : N163 N156 N164 N158 N165 N166 N167 ... N171

_F( CHAM_GD = TM_0400, NOEUD = 'N163', NOM_CMP = 'TEMP', VALE = 461.,  PRECISION = 5.E-2,
                                                   REFERENCE='ANALYTIQUE'),
_F( CHAM_GD = TM_0400, NOEUD = 'N163', NOM_CMP = 'TEMP', VALE = 4.7477828859746E+02,  PRECISION = 1.E-4,
                                                   REFERENCE='NON_REGRESSION'),
_F( CHAM_GD = TM_0400, NOEUD = 'N171', NOM_CMP = 'TEMP', VALE = 461.,  PRECISION = 5.E-2,
                                                   REFERENCE='ANALYTIQUE'),
_F( CHAM_GD = TM_0400, NOEUD = 'N171', NOM_CMP = 'TEMP', VALE = 4.7477377760743E+02,  PRECISION = 1.E-4,
                                                   REFERENCE='NON_REGRESSION'),
_F( CHAM_GD = TM_0400, NOEUD = 'N166', NOM_CMP = 'TEMP', VALE = 461.,  PRECISION = 5.E-2,
                                                   REFERENCE='ANALYTIQUE'),
_F( CHAM_GD = TM_0400, NOEUD = 'N166', NOM_CMP = 'TEMP', VALE = 4.7477871783898E+02,  PRECISION = 1.E-4,
                                                   REFERENCE='NON_REGRESSION'),
_F( CHAM_GD = TM_0400, NOEUD = 'N156', NOM_CMP = 'TEMP', VALE = 461.,  PRECISION = 5.E-2,
                                                   REFERENCE='ANALYTIQUE'),
_F( CHAM_GD = TM_0400, NOEUD = 'N156', NOM_CMP = 'TEMP', VALE = 4.7478446622094E+02,  PRECISION = 1.E-4,
                                                   REFERENCE='NON_REGRESSION'),
_F( CHAM_GD = TM_0600, NOEUD = 'N163', NOM_CMP = 'TEMP', VALE = 608.,  PRECISION = 5.E-2,
                                                   REFERENCE='ANALYTIQUE'),
_F( CHAM_GD = TM_0600, NOEUD = 'N163', NOM_CMP = 'TEMP', VALE = 5.9601562734052E+02,  PRECISION = 1.E-4,
                                                   REFERENCE='NON_REGRESSION'),
_F( CHAM_GD = TM_0600, NOEUD = 'N164', NOM_CMP = 'TEMP', VALE = 608.,  PRECISION = 5.E-2,
                                                   REFERENCE='ANALYTIQUE'),
_F( CHAM_GD = TM_0600, NOEUD = 'N164', NOM_CMP = 'TEMP', VALE = 5.9601497628705E+02,  PRECISION = 1.E-4,
                                                   REFERENCE='NON_REGRESSION'),
_F( CHAM_GD = TM_0600, NOEUD = 'N158', NOM_CMP = 'TEMP', VALE = 608.,  PRECISION = 5.E-2,
                                                   REFERENCE='ANALYTIQUE'),
_F( CHAM_GD = TM_0600, NOEUD = 'N158', NOM_CMP = 'TEMP', VALE = 5.9601646158188E+02,  PRECISION = 1.E-4,
                                                   REFERENCE='NON_REGRESSION'),
_F( CHAM_GD = TM_0800, NOEUD = 'N163', NOM_CMP = 'TEMP', VALE = 696.,  PRECISION = 5.E-2,
                                                   REFERENCE='ANALYTIQUE'),
_F( CHAM_GD = TM_0800, NOEUD = 'N163', NOM_CMP = 'TEMP', VALE = 6.8911927012096E+02,  PRECISION = 1.E-4,
                                                   REFERENCE='NON_REGRESSION'),
_F( CHAM_GD = TM_0800, NOEUD = 'N165', NOM_CMP = 'TEMP', VALE = 696.,  PRECISION = 5.E-2,
                                                   REFERENCE='ANALYTIQUE'),
_F( CHAM_GD = TM_0800, NOEUD = 'N165', NOM_CMP = 'TEMP', VALE = 6.8911914550614E+02,  PRECISION = 1.E-4,
                                                   REFERENCE='NON_REGRESSION'),
_F( CHAM_GD = TM_0800, NOEUD = 'N166', NOM_CMP = 'TEMP', VALE = 696.,  PRECISION = 5.E-2,
                                                   REFERENCE='ANALYTIQUE'),
_F( CHAM_GD = TM_0800, NOEUD = 'N166', NOM_CMP = 'TEMP', VALE = 6.8911950976944E+02,  PRECISION = 1.E-4,
                                                   REFERENCE='NON_REGRESSION'),
_F( CHAM_GD = TM_1000, NOEUD = 'N163', NOM_CMP = 'TEMP', VALE = 774.,  PRECISION = 5.E-2,
                                                   REFERENCE='ANALYTIQUE'),
_F( CHAM_GD = TM_1000, NOEUD = 'N163', NOM_CMP = 'TEMP', VALE = 7.6065102079823E+02,  PRECISION = 1.E-4,
                                                   REFERENCE='NON_REGRESSION'),
_F( CHAM_GD = TM_1000, NOEUD = 'N167', NOM_CMP = 'TEMP', VALE = 774.,  PRECISION = 5.E-2,
                                                   REFERENCE='ANALYTIQUE'),
_F( CHAM_GD = TM_1000, NOEUD = 'N167', NOM_CMP = 'TEMP', VALE = 7.6065197617456E+02,  PRECISION = 1.E-4,
                                                   REFERENCE='NON_REGRESSION'),
_F( CHAM_GD = TM_1000, NOEUD = 'N168', NOM_CMP = 'TEMP', VALE = 774.,  PRECISION = 5.E-2,
                                                   REFERENCE='ANALYTIQUE'),
_F( CHAM_GD = TM_1000, NOEUD = 'N168', NOM_CMP = 'TEMP', VALE = 7.6065171441612E+02,  PRECISION = 1.E-4,
                                                   REFERENCE='NON_REGRESSION'),
_F( CHAM_GD = TM_1200, NOEUD = 'N163', NOM_CMP = 'TEMP', VALE = 828.,  PRECISION = 5.E-2,
                                                   REFERENCE='ANALYTIQUE'),
_F( CHAM_GD = TM_1200, NOEUD = 'N163', NOM_CMP = 'TEMP', VALE = 8.1572384052664E+02,  PRECISION = 1.E-4,
                                                   REFERENCE='NON_REGRESSION'),
_F( CHAM_GD = TM_1200, NOEUD = 'N169', NOM_CMP = 'TEMP', VALE = 828.,  PRECISION = 5.E-2,
                                                   REFERENCE='ANALYTIQUE'),
_F( CHAM_GD = TM_1200, NOEUD = 'N169', NOM_CMP = 'TEMP', VALE = 8.1572517110827E+02,  PRECISION = 1.E-4,
                                                   REFERENCE='NON_REGRESSION'),
_F( CHAM_GD = TM_1200, NOEUD = 'N170', NOM_CMP = 'TEMP', VALE = 828.,  PRECISION = 5.E-2,
                                                   REFERENCE='ANALYTIQUE'),
_F( CHAM_GD = TM_1200, NOEUD = 'N170', NOM_CMP = 'TEMP', VALE = 8.1572400409810E+02,  PRECISION = 1.E-4,
                                                   REFERENCE='NON_REGRESSION'),
_F( CHAM_GD = TM_1400, NOEUD = 'N163', NOM_CMP = 'TEMP', VALE = 868.,  PRECISION = 5.E-2,
                                                   REFERENCE='ANALYTIQUE'),
_F( CHAM_GD = TM_1400, NOEUD = 'N163', NOM_CMP = 'TEMP', VALE = 8.5812477032062E+02,  PRECISION = 1.E-4,
                                                   REFERENCE='NON_REGRESSION'),
_F( CHAM_GD = TM_1400, NOEUD = 'N171', NOM_CMP = 'TEMP', VALE = 868.,  PRECISION = 5.E-2,
                                                   REFERENCE='ANALYTIQUE'),
_F( CHAM_GD = TM_1400, NOEUD = 'N171', NOM_CMP = 'TEMP', VALE = 8.5812372929214E+02,  PRECISION = 1.E-4,
                                                   REFERENCE='NON_REGRESSION'),
_F( CHAM_GD = TM_1400, NOEUD = 'N166', NOM_CMP = 'TEMP', VALE = 868.,  PRECISION = 5.E-2,
                                                   REFERENCE='ANALYTIQUE'),
_F( CHAM_GD = TM_1400, NOEUD = 'N166', NOM_CMP = 'TEMP', VALE = 8.5812488042735E+02,  PRECISION = 1.E-4,
                                                   REFERENCE='NON_REGRESSION'),
_F( CHAM_GD = TM_1400, NOEUD = 'N156', NOM_CMP = 'TEMP', VALE = 868.,  PRECISION = 5.E-2,
                                                   REFERENCE='ANALYTIQUE'),
_F( CHAM_GD = TM_1400, NOEUD = 'N156', NOM_CMP = 'TEMP', VALE = 8.5812643906313E+02,  PRECISION = 1.E-4,
                                                   REFERENCE='NON_REGRESSION'),
_F( CHAM_GD = TM_1600, NOEUD = 'N163', NOM_CMP = 'TEMP', VALE = 902.,  PRECISION = 5.E-2,
                                                   REFERENCE='ANALYTIQUE'),
_F( CHAM_GD = TM_1600, NOEUD = 'N163', NOM_CMP = 'TEMP', VALE = 8.9062936051214E+02,  PRECISION = 1.E-4,
                                                   REFERENCE='NON_REGRESSION'),
_F( CHAM_GD = TM_1600, NOEUD = 'N164', NOM_CMP = 'TEMP', VALE = 902.,  PRECISION = 5.E-2,
                                                   REFERENCE='ANALYTIQUE'),
_F( CHAM_GD = TM_1600, NOEUD = 'N164', NOM_CMP = 'TEMP', VALE = 8.9062918416849E+02,  PRECISION = 1.E-4,
                                                   REFERENCE='NON_REGRESSION'),
_F( CHAM_GD = TM_1600, NOEUD = 'N158', NOM_CMP = 'TEMP', VALE = 902.,  PRECISION = 5.E-2,
                                                   REFERENCE='ANALYTIQUE'),
_F( CHAM_GD = TM_1600, NOEUD = 'N158', NOM_CMP = 'TEMP', VALE = 8.9062958675744E+02,  PRECISION = 1.E-4,
                                                   REFERENCE='NON_REGRESSION'),
_F( CHAM_GD = TM_1800, NOEUD = 'N163', NOM_CMP = 'TEMP', VALE = 923.,  PRECISION = 5.E-2,
                                                   REFERENCE='ANALYTIQUE'),
_F( CHAM_GD = TM_1800, NOEUD = 'N163', NOM_CMP = 'TEMP', VALE = 9.1568768914579E+02,  PRECISION = 1.E-4,
                                                   REFERENCE='NON_REGRESSION'),
_F( CHAM_GD = TM_1800, NOEUD = 'N165', NOM_CMP = 'TEMP', VALE = 923.,  PRECISION = 5.E-2,
                                                   REFERENCE='ANALYTIQUE'),
_F( CHAM_GD = TM_1800, NOEUD = 'N165', NOM_CMP = 'TEMP', VALE = 9.1568765507476E+02,  PRECISION = 1.E-4,
                                                   REFERENCE='NON_REGRESSION'),
_F( CHAM_GD = TM_1800, NOEUD = 'N166', NOM_CMP = 'TEMP', VALE = 923.,  PRECISION = 5.E-2,
                                                   REFERENCE='ANALYTIQUE'),
_F( CHAM_GD = TM_1800, NOEUD = 'N166', NOM_CMP = 'TEMP', VALE = 9.1568775459198E+02,  PRECISION = 1.E-4,
                                                   REFERENCE='NON_REGRESSION'),
_F( CHAM_GD = TM_2000, NOEUD = 'N163', NOM_CMP = 'TEMP', VALE = 942.,  PRECISION = 5.E-2,
                                                   REFERENCE='ANALYTIQUE'),
_F( CHAM_GD = TM_2000, NOEUD = 'N163', NOM_CMP = 'TEMP', VALE = 9.3500423469900E+02,  PRECISION = 1.E-4,
                                                   REFERENCE='NON_REGRESSION'),
_F( CHAM_GD = TM_2000, NOEUD = 'N167', NOM_CMP = 'TEMP', VALE = 942.,  PRECISION = 5.E-2,
                                                   REFERENCE='ANALYTIQUE'),
_F( CHAM_GD = TM_2000, NOEUD = 'N167', NOM_CMP = 'TEMP', VALE = 9.3500449576640E+02,  PRECISION = 1.E-4,
                                                   REFERENCE='NON_REGRESSION'),
_F( CHAM_GD = TM_2000, NOEUD = 'N168', NOM_CMP = 'TEMP', VALE = 942.,  PRECISION = 5.E-2,
                                                   REFERENCE='ANALYTIQUE'),
_F( CHAM_GD = TM_2000, NOEUD = 'N168', NOM_CMP = 'TEMP', VALE = 9.3500442768699E+02,  PRECISION = 1.E-4,
                                                   REFERENCE='NON_REGRESSION'),
_F( CHAM_GD = TM_2200, NOEUD = 'N163', NOM_CMP = 'TEMP', VALE = 956.,  PRECISION = 5.E-2,
                                                   REFERENCE='ANALYTIQUE'),
_F( CHAM_GD = TM_2200, NOEUD = 'N163', NOM_CMP = 'TEMP', VALE = 9.4989565317698E+02,  PRECISION = 1.E-4,
                                                   REFERENCE='NON_REGRESSION'),
_F( CHAM_GD = TM_2200, NOEUD = 'N169', NOM_CMP = 'TEMP', VALE = 956.,  PRECISION = 5.E-2,
                                                   REFERENCE='ANALYTIQUE'),
_F( CHAM_GD = TM_2200, NOEUD = 'N169', NOM_CMP = 'TEMP', VALE = 9.4989601588206E+02,  PRECISION = 1.E-4,
                                                   REFERENCE='NON_REGRESSION'),
_F( CHAM_GD = TM_2200, NOEUD = 'N170', NOM_CMP = 'TEMP', VALE = 956.,  PRECISION = 5.E-2,
                                                   REFERENCE='ANALYTIQUE'),
_F( CHAM_GD = TM_2200, NOEUD = 'N170', NOM_CMP = 'TEMP', VALE = 9.4989569690702E+02,  PRECISION = 1.E-4,
                                                   REFERENCE='NON_REGRESSION'),
_F( CHAM_GD = TM_2400, NOEUD = 'N163', NOM_CMP = 'TEMP', VALE = 962.,  PRECISION = 5.E-2,
                                                   REFERENCE='ANALYTIQUE'),
_F( CHAM_GD = TM_2400, NOEUD = 'N163', NOM_CMP = 'TEMP', VALE = 9.6137492151762E+02,  PRECISION = 1.E-4,
                                                   REFERENCE='NON_REGRESSION'),
_F( CHAM_GD = TM_2400, NOEUD = 'N171', NOM_CMP = 'TEMP', VALE = 962.,  PRECISION = 5.E-2,
                                                   REFERENCE='ANALYTIQUE'),
_F( CHAM_GD = TM_2400, NOEUD = 'N171', NOM_CMP = 'TEMP', VALE = 9.6137463064387E+02,  PRECISION = 1.E-4,
                                                   REFERENCE='NON_REGRESSION'),
_F( CHAM_GD = TM_2400, NOEUD = 'N166', NOM_CMP = 'TEMP', VALE = 962.,  PRECISION = 5.E-2,
                                                   REFERENCE='ANALYTIQUE'),
_F( CHAM_GD = TM_2400, NOEUD = 'N166', NOM_CMP = 'TEMP', VALE = 9.6137495174767E+02,  PRECISION = 1.E-4,
                                                   REFERENCE='NON_REGRESSION'),)
        )

#
# FIN ------------------------------------------------------------------
#

FIN()
#
#
