# TITRE CHOC THERMIQUE DANS UN TUYAU AVEC CONDITION D'ECHANGE
# ======================================================================
# COPYRIGHT (C) 1991 - 2015  EDF R&D                  WWW.CODE-ASTER.ORG
# THIS PROGRAM IS FREE SOFTWARE; YOU CAN REDISTRIBUTE IT AND/OR MODIFY  
# IT UNDER THE TERMS OF THE GNU GENERAL PUBLIC LICENSE AS PUBLISHED BY  
# THE FREE SOFTWARE FOUNDATION; EITHER VERSION 2 OF THE LICENSE, OR     
# (AT YOUR OPTION) ANY LATER VERSION.                                                    
#                                                                       
# THIS PROGRAM IS DISTRIBUTED IN THE HOPE THAT IT WILL BE USEFUL, BUT   
# WITHOUT ANY WARRANTY; WITHOUT EVEN THE IMPLIED WARRANTY OF            
# MERCHANTABILITY OR FITNESS FOR A PARTICULAR PURPOSE. SEE THE GNU      
# GENERAL PUBLIC LICENSE FOR MORE DETAILS.                              
#                                                                       
# YOU SHOULD HAVE RECEIVED A COPY OF THE GNU GENERAL PUBLIC LICENSE     
# ALONG WITH THIS PROGRAM; IF NOT, WRITE TO EDF R&D CODE_ASTER,         
#    1 AVENUE DU GENERAL DE GAULLE, 92141 CLAMART CEDEX, FRANCE.        
# ======================================================================
# MODELISATION TRIA3, QUAD4

DEBUT(CODE=_F(
              NIV_PUB_WEB='INTERNET',),
      DEBUG=_F(SDVERI='OUI',),);

MA=LIRE_MAILLAGE(FORMAT='MED',);

MOTHER=AFFE_MODELE(MAILLAGE=MA,
                   
                   AFFE=_F(TOUT='OUI',
                           PHENOMENE='THERMIQUE',
                           MODELISATION='3D_DIAG',),);

INOX=DEFI_MATERIAU(ELAS=_F(E=174700.,
                           NU=0.3,
                           ALPHA=17.83E-6,),
                   THER=_F(LAMBDA=19.97E-3,
                           RHO_CP=4.89488E-3,),);

CHMAT=AFFE_MATERIAU(MAILLAGE=MA,
                    AFFE=_F(TOUT='OUI',
                            MATER=INOX,),);

PAROI=DEFI_CONSTANTE(VALE=40000.E-6,);

#                                             W/MM.MM.DEGC

TP_FLUID=DEFI_FONCTION(NOM_PARA='INST',VALE=(0.,289.,
                             1.0,20.,
                             ),PROL_DROITE='CONSTANT',PROL_GAUCHE='CONSTANT',);

CHAR_TH=AFFE_CHAR_THER_F(MODELE=MOTHER,
                         ECHANGE=_F(GROUP_MA='ECHANGE',
                                    COEF_H=PAROI,
                                    TEMP_EXT=TP_FLUID,),);

LISTTH=DEFI_LIST_REEL(DEBUT=0.,
                      INTERVALLE=(_F(JUSQU_A=12.,
                                     NOMBRE=12,),
                                  _F(JUSQU_A=20.,
                                     NOMBRE=2,),
                                  _F(JUSQU_A=100.,
                                     NOMBRE=4,),
                                  _F(JUSQU_A=200.,
                                     NOMBRE=2,),
                                  _F(JUSQU_A=400.,
                                     NOMBRE=2,),
                                  _F(JUSQU_A=2000.,
                                     NOMBRE=8,),),);

LIST=DEFI_LIST_REEL(VALE=(12.,100.,600.,2000.,),);

TEMPE=THER_LINEAIRE(MODELE=MOTHER,
                    CHAM_MATER=CHMAT,
                    EXCIT=_F(CHARGE=CHAR_TH,),
                    INCREMENT=_F(LIST_INST=LISTTH,),
                    ETAT_INIT=_F(VALE=289.,),
                    ARCHIVAGE=_F(LIST_INST=LISTTH,),);

tab2=POST_RELEVE_T(ACTION=_F(OPERATION='EXTRACTION',
                             INTITULE='t02',
                             RESULTAT=TEMPE,
                             NOM_CHAM='TEMP',
                             GROUP_NO='M1',
                             TOUT_CMP='OUI',),);

TEST_TABLE(REFERENCE='ANALYTIQUE',
           VALE_CALC=289.000000000,
           VALE_REFE=289.0,
           NOM_PARA='TEMP',
           TYPE_TEST='MAX',
           TABLE=tab2,)

TEMP_1=CREA_CHAMP(TYPE_CHAM='NOEU_TEMP_R',
                  OPERATION='EXTR',
                  RESULTAT=TEMPE,
                  NOM_CHAM='TEMP',
                  INST=12.,);

TEMP_2=CREA_CHAMP(TYPE_CHAM='NOEU_TEMP_R',
                  OPERATION='EXTR',
                  RESULTAT=TEMPE,
                  NOM_CHAM='TEMP',
                  INST=100.,);

TEMP_3=CREA_CHAMP(TYPE_CHAM='NOEU_TEMP_R',
                  OPERATION='EXTR',
                  RESULTAT=TEMPE,
                  NOM_CHAM='TEMP',
                  INST=600.,);

TEMP_4=CREA_CHAMP(TYPE_CHAM='NOEU_TEMP_R',
                  OPERATION='EXTR',
                  RESULTAT=TEMPE,
                  NOM_CHAM='TEMP',
                  INST=2000.,);

TEST_RESU(CHAM_NO=(_F(REFERENCE='AUTRE_ASTER',
                      NOM_CMP='TEMP',
                      GROUP_NO='M1',
                      PRECISION=0.029999999999999999,
                      CHAM_GD=TEMP_1,
                      VALE_CALC=286.085893548,
                      VALE_REFE=288.63999999999999,),
                   _F(REFERENCE='AUTRE_ASTER',
                      NOM_CMP='TEMP',
                      GROUP_NO='M1',
                      PRECISION=0.02,
                      CHAM_GD=TEMP_2,
                      VALE_CALC=199.117715821,
                      VALE_REFE=202.75999999999999,),
                   _F(REFERENCE='AUTRE_ASTER',
                      NOM_CMP='TEMP',
                      GROUP_NO='M1',
                      PRECISION=1.E-2,
                      CHAM_GD=TEMP_3,
                      VALE_CALC=92.432513996,
                      VALE_REFE=93.027000000000001,),
                   _F(REFERENCE='AUTRE_ASTER',
                      NOM_CMP='TEMP',
                      GROUP_NO='M1',
                      PRECISION=0.02,
                      CHAM_GD=TEMP_4,
                      VALE_CALC=29.369602709,
                      VALE_REFE=29.419,),
                   _F(REFERENCE='AUTRE_ASTER',
                      NOM_CMP='TEMP',
                      GROUP_NO='M2',
                      PRECISION=1.E-2,
                      CHAM_GD=TEMP_1,
                      VALE_CALC=288.997789449,
                      VALE_REFE=289.0,),
                   _F(REFERENCE='AUTRE_ASTER',
                      NOM_CMP='TEMP',
                      GROUP_NO='M2',
                      PRECISION=0.029999999999999999,
                      CHAM_GD=TEMP_2,
                      VALE_CALC=272.795470466,
                      VALE_REFE=275.04000000000002,),
                   _F(REFERENCE='AUTRE_ASTER',
                      NOM_CMP='TEMP',
                      GROUP_NO='M2',
                      PRECISION=1.E-2,
                      CHAM_GD=TEMP_3,
                      VALE_CALC=141.968048583,
                      VALE_REFE=143.0,),
                   _F(REFERENCE='AUTRE_ASTER',
                      NOM_CMP='TEMP',
                      GROUP_NO='M2',
                      PRECISION=0.029999999999999999,
                      CHAM_GD=TEMP_4,
                      VALE_CALC=35.771515570,
                      VALE_REFE=35.857999999999997,),
                   _F(REFERENCE='AUTRE_ASTER',
                      NOM_CMP='TEMP',
                      GROUP_NO='M1P',
                      PRECISION=0.02,
                      CHAM_GD=TEMP_1,
                      VALE_CALC=286.085751997,
                      VALE_REFE=288.63999999999999,),
                   _F(REFERENCE='AUTRE_ASTER',
                      NOM_CMP='TEMP',
                      GROUP_NO='M1P',
                      PRECISION=0.02,
                      CHAM_GD=TEMP_2,
                      VALE_CALC=199.043146943,
                      VALE_REFE=202.75999999999999,),
                   _F(REFERENCE='AUTRE_ASTER',
                      NOM_CMP='TEMP',
                      GROUP_NO='M1P',
                      PRECISION=1.E-2,
                      CHAM_GD=TEMP_3,
                      VALE_CALC=92.418776760,
                      VALE_REFE=93.027000000000001,),
                   _F(REFERENCE='AUTRE_ASTER',
                      NOM_CMP='TEMP',
                      GROUP_NO='M1P',
                      PRECISION=0.02,
                      CHAM_GD=TEMP_4,
                      VALE_CALC=29.367815119,
                      VALE_REFE=29.419,),
                   _F(REFERENCE='AUTRE_ASTER',
                      NOM_CMP='TEMP',
                      GROUP_NO='M2P',
                      PRECISION=1.E-2,
                      CHAM_GD=TEMP_1,
                      VALE_CALC=288.998123282,
                      VALE_REFE=289.0,),
                   _F(REFERENCE='AUTRE_ASTER',
                      NOM_CMP='TEMP',
                      GROUP_NO='M2P',
                      PRECISION=0.029999999999999999,
                      CHAM_GD=TEMP_2,
                      VALE_CALC=272.800692504,
                      VALE_REFE=275.04000000000002,),
                   _F(REFERENCE='AUTRE_ASTER',
                      NOM_CMP='TEMP',
                      GROUP_NO='M2P',
                      PRECISION=0.02,
                      CHAM_GD=TEMP_3,
                      VALE_CALC=141.967668864,
                      VALE_REFE=143.0,),
                   _F(REFERENCE='AUTRE_ASTER',
                      NOM_CMP='TEMP',
                      GROUP_NO='M2P',
                      PRECISION=0.02,
                      CHAM_GD=TEMP_4,
                      VALE_CALC=35.771461327,
                      VALE_REFE=35.857999999999997,),
                   ),
          )

FIN();

#
