# TITRE ECHANGE DE CHALEUR PAR CONVECTION SUR UNE SPHERE
#            CONFIGURATION MANAGEMENT OF EDF VERSION
# ======================================================================
# COPYRIGHT (C) 1991 - 2012  EDF R&D                  WWW.CODE-ASTER.ORG
# THIS PROGRAM IS FREE SOFTWARE; YOU CAN REDISTRIBUTE IT AND/OR MODIFY
# IT UNDER THE TERMS OF THE GNU GENERAL PUBLIC LICENSE AS PUBLISHED BY
# THE FREE SOFTWARE FOUNDATION; EITHER VERSION 2 OF THE LICENSE, OR
# (AT YOUR OPTION) ANY LATER VERSION.
#
# THIS PROGRAM IS DISTRIBUTED IN THE HOPE THAT IT WILL BE USEFUL, BUT
# WITHOUT ANY WARRANTY; WITHOUT EVEN THE IMPLIED WARRANTY OF
# MERCHANTABILITY OR FITNESS FOR A PARTICULAR PURPOSE. SEE THE GNU
# GENERAL PUBLIC LICENSE FOR MORE DETAILS.
#
# YOU SHOULD HAVE RECEIVED A COPY OF THE GNU GENERAL PUBLIC LICENSE
# ALONG WITH THIS PROGRAM; IF NOT, WRITE TO EDF R&D CODE_ASTER,
#    1 AVENUE DU GENERAL DE GAULLE, 92141 CLAMART CEDEX, FRANCE.
# ======================================================================
#
# MAILLES : QUAD4 , TRIA3  (ET SEG2)
#

DEBUT(  CODE=_F(  NOM = 'TTLV01B',NIV_PUB_WEB='INTERNET') )

#
# LECTURE DU MAILLAGE --------------------------------------------------
#


MAIL=LIRE_MAILLAGE(FORMAT='MED', )

#
# DEFINITION DES CHARGEMENTS ET DU MATERIAU ----------------------------
#

# ----- MATERIAU


MATER=DEFI_MATERIAU(   THER=_F(  LAMBDA = 48.822,  RHO_CP = 4816800.) )

#
# AFFECTATIONS: MATERIAU, MODELE, CHARGEMENT ---------------------------
#


CHMAT=AFFE_MATERIAU(   MAILLAGE=MAIL,
                           AFFE=_F(  TOUT = 'OUI',  MATER = MATER)
                        )

MOTH=AFFE_MODELE(     MAILLAGE=MAIL,
                           AFFE=_F(  TOUT = 'OUI',
                                  MODELISATION = 'AXIS',
                                  PHENOMENE = 'THERMIQUE')
                        )

CHTH=AFFE_CHAR_THER(   MODELE=MOTH,
                             ECHANGE=_F(  GROUP_MA = 'FACE_EXT',
                                       COEF_H = 232.5,  TEMP_EXT = 1000.)
                         )

#
# DEFINITION DE LA STRATEGIE DE CALCUL ---------------------------------
#


LTMPS=DEFI_LIST_REEL(   DEBUT=0.,INTERVALLE=(
                            _F(  JUSQU_A = 100.,   NOMBRE = 8),
                            _F(  JUSQU_A = 300.,   NOMBRE = 8),
                            _F(  JUSQU_A = 700.,   NOMBRE = 8),
                            _F(  JUSQU_A = 1400.,   NOMBRE = 7),
                            _F(  JUSQU_A = 2400.,   NOMBRE = 5))
                         )

#
# RESOLUTION -----------------------------------------------------------
#

TEMPE=THER_LINEAIRE(  MODELE=MOTH,
                          ETAT_INIT=_F(  VALE = 20.E0),
                          INCREMENT=_F(  LIST_INST = LTMPS),
                          CHAM_MATER=CHMAT,
                          EXCIT=_F( CHARGE = CHTH)
                       )

#
# ANALYSE DES RESULTATS ------------------------------------------------
#

TM_0400=CREA_CHAMP(  OPERATION='EXTR', TYPE_CHAM='NOEU_TEMP_R',
NOM_CHAM='TEMP', RESULTAT=TEMPE,
                            INST=400. )

TM_0600=CREA_CHAMP(  OPERATION='EXTR', TYPE_CHAM='NOEU_TEMP_R',
NOM_CHAM='TEMP', RESULTAT=TEMPE,
                            INST=600. )

TM_0800=CREA_CHAMP(  OPERATION='EXTR', TYPE_CHAM='NOEU_TEMP_R',
NOM_CHAM='TEMP', RESULTAT=TEMPE,
                            INST=800. )

TM_1000=CREA_CHAMP(  OPERATION='EXTR', TYPE_CHAM='NOEU_TEMP_R',
NOM_CHAM='TEMP', RESULTAT=TEMPE,
                            INST=1000. )

TM_1200=CREA_CHAMP(  OPERATION='EXTR', TYPE_CHAM='NOEU_TEMP_R',
NOM_CHAM='TEMP', RESULTAT=TEMPE,
                            INST=1200. )

TM_1400=CREA_CHAMP(  OPERATION='EXTR', TYPE_CHAM='NOEU_TEMP_R',
NOM_CHAM='TEMP', RESULTAT=TEMPE,
                            INST=1400. )

TM_1600=CREA_CHAMP(  OPERATION='EXTR', TYPE_CHAM='NOEU_TEMP_R',
NOM_CHAM='TEMP', RESULTAT=TEMPE,
                            INST=1600. )

TM_1800=CREA_CHAMP(  OPERATION='EXTR', TYPE_CHAM='NOEU_TEMP_R',
NOM_CHAM='TEMP', RESULTAT=TEMPE,
                            INST=1800. )

TM_2000=CREA_CHAMP(  OPERATION='EXTR', TYPE_CHAM='NOEU_TEMP_R',
NOM_CHAM='TEMP', RESULTAT=TEMPE,
                            INST=2000. )

TM_2200=CREA_CHAMP(  OPERATION='EXTR', TYPE_CHAM='NOEU_TEMP_R',
NOM_CHAM='TEMP', RESULTAT=TEMPE,
                            INST=2200. )

TM_2400=CREA_CHAMP(  OPERATION='EXTR', TYPE_CHAM='NOEU_TEMP_R',
NOM_CHAM='TEMP', RESULTAT=TEMPE,
                            INST=2400. )

TEST_RESU(CHAM_NO=(_F(NOEUD='N1',
                      REFERENCE='ANALYTIQUE',
                      NOM_CMP='TEMP',
                      PRECISION=0.050000000000000003,
                      CHAM_GD=TM_0400,
                      VALE_CALC=339.945494664,
                      VALE_REFE=334.0,),
                   _F(NOEUD='N1',
                      REFERENCE='ANALYTIQUE',
                      NOM_CMP='TEMP',
                      PRECISION=0.050000000000000003,
                      CHAM_GD=TM_0600,
                      VALE_CALC=492.470979155,
                      VALE_REFE=500.0,),
                   _F(NOEUD='N1',
                      REFERENCE='ANALYTIQUE',
                      NOM_CMP='TEMP',
                      PRECISION=0.050000000000000003,
                      CHAM_GD=TM_0800,
                      VALE_CALC=609.592067636,
                      VALE_REFE=618.0,),
                   _F(NOEUD='N1',
                      REFERENCE='ANALYTIQUE',
                      NOM_CMP='TEMP',
                      PRECISION=0.050000000000000003,
                      CHAM_GD=TM_1000,
                      VALE_CALC=699.547016884,
                      VALE_REFE=706.0,),
                   _F(NOEUD='N1',
                      REFERENCE='ANALYTIQUE',
                      NOM_CMP='TEMP',
                      PRECISION=0.050000000000000003,
                      CHAM_GD=TM_1200,
                      VALE_CALC=768.775203504,
                      VALE_REFE=774.0,),
                   _F(NOEUD='N1',
                      REFERENCE='ANALYTIQUE',
                      NOM_CMP='TEMP',
                      PRECISION=0.050000000000000003,
                      CHAM_GD=TM_1400,
                      VALE_CALC=822.052335953,
                      VALE_REFE=828.0,),
                   _F(NOEUD='N1',
                      REFERENCE='ANALYTIQUE',
                      NOM_CMP='TEMP',
                      PRECISION=0.050000000000000003,
                      CHAM_GD=TM_1600,
                      VALE_CALC=862.878259956,
                      VALE_REFE=872.0,),
                   _F(NOEUD='N1',
                      REFERENCE='ANALYTIQUE',
                      NOM_CMP='TEMP',
                      PRECISION=0.050000000000000003,
                      CHAM_GD=TM_1800,
                      VALE_CALC=894.337632027,
                      VALE_REFE=902.0,),
                   _F(NOEUD='N1',
                      REFERENCE='ANALYTIQUE',
                      NOM_CMP='TEMP',
                      PRECISION=0.050000000000000003,
                      CHAM_GD=TM_2000,
                      VALE_CALC=918.579387776,
                      VALE_REFE=923.0,),
                   _F(NOEUD='N1',
                      REFERENCE='ANALYTIQUE',
                      NOM_CMP='TEMP',
                      PRECISION=0.050000000000000003,
                      CHAM_GD=TM_2200,
                      VALE_CALC=937.259440492,
                      VALE_REFE=942.0,),
                   _F(NOEUD='N1',
                      REFERENCE='ANALYTIQUE',
                      NOM_CMP='TEMP',
                      PRECISION=0.050000000000000003,
                      CHAM_GD=TM_2400,
                      VALE_CALC=951.653792514,
                      VALE_REFE=956.0,),
                   _F(NOEUD='N56',
                      REFERENCE='ANALYTIQUE',
                      NOM_CMP='TEMP',
                      PRECISION=0.050000000000000003,
                      CHAM_GD=TM_0400,
                      VALE_CALC=475.143659312,
                      VALE_REFE=461.0,),
                   _F(NOEUD='N61',
                      REFERENCE='ANALYTIQUE',
                      NOM_CMP='TEMP',
                      PRECISION=0.050000000000000003,
                      CHAM_GD=TM_0400,
                      VALE_CALC=475.088050120,
                      VALE_REFE=461.0,),
                   _F(NOEUD='N59',
                      REFERENCE='ANALYTIQUE',
                      NOM_CMP='TEMP',
                      PRECISION=0.050000000000000003,
                      CHAM_GD=TM_0400,
                      VALE_CALC=475.119930640,
                      VALE_REFE=461.0,),
                   _F(NOEUD='N56',
                      REFERENCE='ANALYTIQUE',
                      NOM_CMP='TEMP',
                      PRECISION=0.050000000000000003,
                      CHAM_GD=TM_0600,
                      VALE_CALC=596.456508444,
                      VALE_REFE=608.0,),
                   _F(NOEUD='N57',
                      REFERENCE='ANALYTIQUE',
                      NOM_CMP='TEMP',
                      PRECISION=0.050000000000000003,
                      CHAM_GD=TM_0600,
                      VALE_CALC=596.451578088,
                      VALE_REFE=608.0,),
                   _F(NOEUD='N56',
                      REFERENCE='ANALYTIQUE',
                      NOM_CMP='TEMP',
                      PRECISION=0.050000000000000003,
                      CHAM_GD=TM_0800,
                      VALE_CALC=689.581739142,
                      VALE_REFE=696.0,),
                   _F(NOEUD='N58',
                      REFERENCE='ANALYTIQUE',
                      NOM_CMP='TEMP',
                      PRECISION=0.050000000000000003,
                      CHAM_GD=TM_0800,
                      VALE_CALC=689.573447346,
                      VALE_REFE=696.0,),
                   _F(NOEUD='N56',
                      REFERENCE='ANALYTIQUE',
                      NOM_CMP='TEMP',
                      PRECISION=0.050000000000000003,
                      CHAM_GD=TM_1000,
                      VALE_CALC=761.106032584,
                      VALE_REFE=774.0,),
                   _F(NOEUD='N59',
                      REFERENCE='ANALYTIQUE',
                      NOM_CMP='TEMP',
                      PRECISION=0.050000000000000003,
                      CHAM_GD=TM_1000,
                      VALE_CALC=761.095230859,
                      VALE_REFE=774.0,),
                   _F(NOEUD='N56',
                      REFERENCE='ANALYTIQUE',
                      NOM_CMP='TEMP',
                      PRECISION=0.050000000000000003,
                      CHAM_GD=TM_1200,
                      VALE_CALC=816.150228889,
                      VALE_REFE=828.0,),
                   _F(NOEUD='N60',
                      REFERENCE='ANALYTIQUE',
                      NOM_CMP='TEMP',
                      PRECISION=0.050000000000000003,
                      CHAM_GD=TM_1200,
                      VALE_CALC=816.137350476,
                      VALE_REFE=828.0,),
                   _F(NOEUD='N56',
                      REFERENCE='ANALYTIQUE',
                      NOM_CMP='TEMP',
                      PRECISION=0.050000000000000003,
                      CHAM_GD=TM_1400,
                      VALE_CALC=858.511547664,
                      VALE_REFE=868.0,),
                   _F(NOEUD='N61',
                      REFERENCE='ANALYTIQUE',
                      NOM_CMP='TEMP',
                      PRECISION=0.050000000000000003,
                      CHAM_GD=TM_1400,
                      VALE_CALC=858.496555605,
                      VALE_REFE=868.0,),
                   _F(NOEUD='N59',
                      REFERENCE='ANALYTIQUE',
                      NOM_CMP='TEMP',
                      PRECISION=0.050000000000000003,
                      CHAM_GD=TM_1400,
                      VALE_CALC=858.505150169,
                      VALE_REFE=868.0,),
                   _F(NOEUD='N56',
                      REFERENCE='ANALYTIQUE',
                      NOM_CMP='TEMP',
                      PRECISION=0.050000000000000003,
                      CHAM_GD=TM_1600,
                      VALE_CALC=890.972740752,
                      VALE_REFE=902.0,),
                   _F(NOEUD='N57',
                      REFERENCE='ANALYTIQUE',
                      NOM_CMP='TEMP',
                      PRECISION=0.050000000000000003,
                      CHAM_GD=TM_1600,
                      VALE_CALC=890.971408741,
                      VALE_REFE=902.0,),
                   _F(NOEUD='N56',
                      REFERENCE='ANALYTIQUE',
                      NOM_CMP='TEMP',
                      PRECISION=0.050000000000000003,
                      CHAM_GD=TM_1800,
                      VALE_CALC=915.986505960,
                      VALE_REFE=923.0,),
                   _F(NOEUD='N58',
                      REFERENCE='ANALYTIQUE',
                      NOM_CMP='TEMP',
                      PRECISION=0.050000000000000003,
                      CHAM_GD=TM_1800,
                      VALE_CALC=915.984261812,
                      VALE_REFE=923.0,),
                   _F(NOEUD='N56',
                      REFERENCE='ANALYTIQUE',
                      NOM_CMP='TEMP',
                      PRECISION=0.050000000000000003,
                      CHAM_GD=TM_2000,
                      VALE_CALC=935.261424350,
                      VALE_REFE=942.0,),
                   _F(NOEUD='N59',
                      REFERENCE='ANALYTIQUE',
                      NOM_CMP='TEMP',
                      PRECISION=0.050000000000000003,
                      CHAM_GD=TM_2000,
                      VALE_CALC=935.258497139,
                      VALE_REFE=942.0,),
                   _F(NOEUD='N56',
                      REFERENCE='ANALYTIQUE',
                      NOM_CMP='TEMP',
                      PRECISION=0.050000000000000003,
                      CHAM_GD=TM_2200,
                      VALE_CALC=950.114182037,
                      VALE_REFE=956.0,),
                   _F(NOEUD='N60',
                      REFERENCE='ANALYTIQUE',
                      NOM_CMP='TEMP',
                      PRECISION=0.050000000000000003,
                      CHAM_GD=TM_2200,
                      VALE_CALC=950.110687608,
                      VALE_REFE=956.0,),
                   _F(NOEUD='N56',
                      REFERENCE='ANALYTIQUE',
                      NOM_CMP='TEMP',
                      PRECISION=0.050000000000000003,
                      CHAM_GD=TM_2400,
                      VALE_CALC=961.559309037,
                      VALE_REFE=962.0,),
                   _F(NOEUD='N61',
                      REFERENCE='ANALYTIQUE',
                      NOM_CMP='TEMP',
                      PRECISION=0.050000000000000003,
                      CHAM_GD=TM_2400,
                      VALE_CALC=961.555235857,
                      VALE_REFE=962.0,),
                   _F(NOEUD='N59',
                      REFERENCE='ANALYTIQUE',
                      NOM_CMP='TEMP',
                      PRECISION=0.050000000000000003,
                      CHAM_GD=TM_2400,
                      VALE_CALC=961.557570908,
                      VALE_REFE=962.0,),
                   ),
          )

# Pour tester DEFI_GROUP / CREA_GROUP_NO / OPTION='INTERVALLE_VALEUR' :
#----------------------------------------------------------------------
# On recupere le groupe des noeuds ou la temperature du champ TM_2400 est  954. < T < 955.
# Il y en a 6 : N26, ..., N31

#IMPR_RESU(RESU=_F(CHAM_GD=TM_2400))
DEFI_GROUP( reuse  = MAIL, MAILLAGE = MAIL,
            CREA_GROUP_NO = _F(NOM='G954', OPTION='INTERVALLE_VALE',
            CHAM_GD=TM_2400, NOM_CMP='TEMP', VALE=(954., 955.),),);

# j'ai verifie (avec mes yeux) que G954 contient les noeuds N26,N27,...,N31
# On va tester la valeur des coordonnees de ces noeuds
CHXN1=CREA_CHAMP(OPERATION='EXTR', TYPE_CHAM='NOEU_GEOM_R',
                NOM_CHAM='GEOMETRIE', MAILLAGE=MAIL, INFO=1)
CHXN2=CREA_CHAMP( OPERATION='ASSE',MAILLAGE = MAIL , TYPE_CHAM = 'NOEU_GEOM_R' , INFO=1,
                  ASSE = _F ( NOM_CMP=('X','Y'), GROUP_NO = 'G954' , CHAM_GD = CHXN1))

# la reference est bien 'ANALYTIQUE' : j'ai fait la somme "a la main" des coordonnees des noeuds retenus.
TEST_RESU(CHAM_NO=(_F(REFERENCE='ANALYTIQUE',
                      NOM_CMP='X',
                      TYPE_TEST='SOMM',
                      CHAM_GD=CHXN2,
                      VALE_CALC=0.255671780,
                      VALE_REFE=0.25567178000000002,),
                   _F(REFERENCE='ANALYTIQUE',
                      NOM_CMP='Y',
                      TYPE_TEST='SOMM',
                      CHAM_GD=CHXN2,
                      VALE_CALC=0.147612170,
                      VALE_REFE=0.14761216999999999,),
                   ),
          )

FIN()
