# MODIF  DATE 17/01/2012   AUTEUR SELLENET N.SELLENET 
# TITRE PARALLELEPIPEDE SOUMIS A TEMPERATURE IMPOSEE SUR SES FACES
#            CONFIGURATION MANAGEMENT OF EDF VERSION
# ======================================================================
# COPYRIGHT (C) 1991 - 2012  EDF R&D                  WWW.CODE-ASTER.ORG
# THIS PROGRAM IS FREE SOFTWARE; YOU CAN REDISTRIBUTE IT AND/OR MODIFY
# IT UNDER THE TERMS OF THE GNU GENERAL PUBLIC LICENSE AS PUBLISHED BY
# THE FREE SOFTWARE FOUNDATION; EITHER VERSION 2 OF THE LICENSE, OR   
# (AT YOUR OPTION) ANY LATER VERSION.                                 
#
# THIS PROGRAM IS DISTRIBUTED IN THE HOPE THAT IT WILL BE USEFUL, BUT 
# WITHOUT ANY WARRANTY; WITHOUT EVEN THE IMPLIED WARRANTY OF          
# MERCHANTABILITY OR FITNESS FOR A PARTICULAR PURPOSE. SEE THE GNU    
# GENERAL PUBLIC LICENSE FOR MORE DETAILS.                            
#
# YOU SHOULD HAVE RECEIVED A COPY OF THE GNU GENERAL PUBLIC LICENSE   
# ALONG WITH THIS PROGRAM; IF NOT, WRITE TO EDF R&D CODE_ASTER,       
#    1 AVENUE DU GENERAL DE GAULLE, 92141 CLAMART CEDEX, FRANCE.      
# ======================================================================
#
# MAILLES : HEXA27
#

DEBUT(  CODE=_F(  NOM = 'TTLV301A',NIV_PUB_WEB='INTERNET') )

#
# LECTURE DU MAILLAGE --------------------------------------------------
#


MAIL=LIRE_MAILLAGE(FORMAT='MED', )

#
# DEFINITION DES CHARGEMENTS ET DU MATERIAU ----------------------------
#

# ----- MATERIAU


MATER=DEFI_MATERIAU(   THER=_F(  LAMBDA = 1.0,  RHO_CP = 1.0) )

#
# AFFECTATIONS: MATERIAU, MODELE, CHARGEMENT ---------------------------
#


CHMAT=AFFE_MATERIAU(   MAILLAGE=MAIL,
                           AFFE=_F(  TOUT = 'OUI',  MATER = MATER)
                        )

MOTH=AFFE_MODELE(     MAILLAGE=MAIL,
                           AFFE=_F(  TOUT = 'OUI',
                                  MODELISATION = '3D',
                                  PHENOMENE = 'THERMIQUE')
                        )

CHTH=AFFE_CHAR_THER(   MODELE=MOTH,
                           TEMP_IMPO=_F( GROUP_NO = 'FAC_EXT', TEMP = 2.E0)
                         )

#
# DEFINITION DE LA STRATEGIE DE CALCUL --------------------------------
#


LTMPS=DEFI_LIST_REEL(   DEBUT=0.E0,INTERVALLE=(
                            _F(  JUSQU_A = 0.02,   NOMBRE = 4),
                            _F(  JUSQU_A = 0.05,   NOMBRE = 3),
                            _F(  JUSQU_A = 0.15,   NOMBRE = 4),
                            _F(  JUSQU_A = 0.4,    NOMBRE = 5),
                            _F(  JUSQU_A = 1.2,    NOMBRE = 8))
                         )

#
# RESOLUTION ----------------------------------------------------------
#

TEMPE=THER_LINEAIRE(   MODELE=MOTH,
                           ETAT_INIT=_F(  VALE = 1.0),
                           INCREMENT=_F(  LIST_INST = LTMPS),
                           CHAM_MATER=CHMAT,
                           EXCIT=_F(  CHARGE = CHTH)
                        )

#
# ANALYSE DES RESULTATS -----------------------------------------------
#

TEMP_01=CREA_CHAMP(  OPERATION='EXTR', TYPE_CHAM='NOEU_TEMP_R',
NOM_CHAM='TEMP', RESULTAT=TEMPE,
                            INST=.1
                      )

TEMP_02=CREA_CHAMP(  OPERATION='EXTR', TYPE_CHAM='NOEU_TEMP_R',
NOM_CHAM='TEMP', RESULTAT=TEMPE,
                            INST=.2
                      )

TEMP_03=CREA_CHAMP(  OPERATION='EXTR', TYPE_CHAM='NOEU_TEMP_R',
NOM_CHAM='TEMP', RESULTAT=TEMPE,
                            INST=.3
                      )

TEMP_04=CREA_CHAMP(  OPERATION='EXTR', TYPE_CHAM='NOEU_TEMP_R',
NOM_CHAM='TEMP', RESULTAT=TEMPE,
                            INST=.4
                      )

TEMP_05=CREA_CHAMP(  OPERATION='EXTR', TYPE_CHAM='NOEU_TEMP_R',
NOM_CHAM='TEMP', RESULTAT=TEMPE,
                            INST=.5
                      )

TEMP_06=CREA_CHAMP(  OPERATION='EXTR', TYPE_CHAM='NOEU_TEMP_R',
NOM_CHAM='TEMP', RESULTAT=TEMPE,
                            INST=.6
                      )

TEMP_07=CREA_CHAMP(  OPERATION='EXTR', TYPE_CHAM='NOEU_TEMP_R',
NOM_CHAM='TEMP', RESULTAT=TEMPE,
                            INST=.7
                      )

TEMP_08=CREA_CHAMP(  OPERATION='EXTR', TYPE_CHAM='NOEU_TEMP_R',
NOM_CHAM='TEMP', RESULTAT=TEMPE,
                            INST=.8
                      )

TEMP_09=CREA_CHAMP(  OPERATION='EXTR', TYPE_CHAM='NOEU_TEMP_R',
NOM_CHAM='TEMP', RESULTAT=TEMPE,
                            INST=.9
                      )

TEMP_10=CREA_CHAMP(  OPERATION='EXTR', TYPE_CHAM='NOEU_TEMP_R',
NOM_CHAM='TEMP', RESULTAT=TEMPE,
                            INST=1.0
                      )

TEMP_11=CREA_CHAMP(  OPERATION='EXTR', TYPE_CHAM='NOEU_TEMP_R',
NOM_CHAM='TEMP', RESULTAT=TEMPE,
                            INST=1.1
                      )

TEMP_12=CREA_CHAMP(  OPERATION='EXTR', TYPE_CHAM='NOEU_TEMP_R',
NOM_CHAM='TEMP', RESULTAT=TEMPE,
                            INST=1.2
                      )

TEST_RESU(CHAM_NO=(

   
_F( CHAM_GD = TEMP_01, NOEUD = 'N5', NOM_CMP = 'TEMP', VALE = 1.051367, PRECISION = 1.E-2),
_F( CHAM_GD = TEMP_02, NOEUD = 'N5', NOM_CMP = 'TEMP', VALE = 1.24768,  PRECISION = 1.E-2),
_F( CHAM_GD = TEMP_03, NOEUD = 'N5', NOM_CMP = 'TEMP', VALE = 1.45136,  PRECISION = 1.E-2),
_F( CHAM_GD = TEMP_05, NOEUD = 'N5', NOM_CMP = 'TEMP', VALE = 1.73684,  PRECISION = 1.E-2),
_F( CHAM_GD = TEMP_07, NOEUD = 'N5', NOM_CMP = 'TEMP', VALE = 1.88010,  PRECISION = 1.E-2),
_F( CHAM_GD = TEMP_10, NOEUD = 'N5', NOM_CMP = 'TEMP', VALE = 1.96406,  PRECISION = 1.E-2),
_F( CHAM_GD = TEMP_12, NOEUD = 'N5', NOM_CMP = 'TEMP', VALE = 1.98398,  PRECISION = 1.E-2),

_F( CHAM_GD = TEMP_01, NOEUD = 'N1075', NOM_CMP = 'TEMP', VALE = 1.33579,
                                                       PRECISION = 1.E-2),
_F( CHAM_GD = TEMP_02, NOEUD = 'N1075', NOM_CMP = 'TEMP', VALE = 1.61081,
                                                       PRECISION = 1.E-2),
_F( CHAM_GD = TEMP_03, NOEUD = 'N1075', NOM_CMP = 'TEMP', VALE = 1.75959,
                                                       PRECISION = 1.E-2),
_F( CHAM_GD = TEMP_05, NOEUD = 'N1075', NOM_CMP = 'TEMP', VALE = 1.90017,
                                                       PRECISION = 1.E-2),
_F( CHAM_GD = TEMP_07, NOEUD = 'N1075', NOM_CMP = 'TEMP', VALE = 1.95657,
                                                       PRECISION = 1.E-2),
_F( CHAM_GD = TEMP_10, NOEUD = 'N1075', NOM_CMP = 'TEMP', VALE = 1.98723,
                                                       PRECISION = 1.E-2),
_F( CHAM_GD = TEMP_12, NOEUD = 'N1075', NOM_CMP = 'TEMP', VALE = 1.99433,
                                                       PRECISION = 1.E-2))

            )

#
# FIN ------------------------------------------------------------------
#

FIN()
#
#
#
#
#
#
#
#
#
#
#
#
#
