# TITRE MUR INFINI SOUMIS A UN SAUT DE TEMPERATURE
# ======================================================================
# COPYRIGHT (C) 1991 - 2012  EDF R&D                  WWW.CODE-ASTER.ORG
# THIS PROGRAM IS FREE SOFTWARE; YOU CAN REDISTRIBUTE IT AND/OR MODIFY
# IT UNDER THE TERMS OF THE GNU GENERAL PUBLIC LICENSE AS PUBLISHED BY
# THE FREE SOFTWARE FOUNDATION; EITHER VERSION 2 OF THE LICENSE, OR   
# (AT YOUR OPTION) ANY LATER VERSION.                                 
#
# THIS PROGRAM IS DISTRIBUTED IN THE HOPE THAT IT WILL BE USEFUL, BUT 
# WITHOUT ANY WARRANTY; WITHOUT EVEN THE IMPLIED WARRANTY OF          
# MERCHANTABILITY OR FITNESS FOR A PARTICULAR PURPOSE. SEE THE GNU    
# GENERAL PUBLIC LICENSE FOR MORE DETAILS.                            
#
# YOU SHOULD HAVE RECEIVED A COPY OF THE GNU GENERAL PUBLIC LICENSE   
# ALONG WITH THIS PROGRAM; IF NOT, WRITE TO EDF R&D CODE_ASTER,       
#    1 AVENUE DU GENERAL DE GAULLE, 92141 CLAMART CEDEX, FRANCE.      
# ======================================================================
#       AVEC PROPRIETES VARIABLES
# MAILLES : TRIA3, QUAD4
#

DEBUT(CODE=_F(NIV_PUB_WEB='INTERNET'))

#
# LECTURE DU MAILLAGE ----------------------------------------------
#

MAIL=LIRE_MAILLAGE(FORMAT='MED', )

#
# DEFINITION DES CHARGEMENTS ET DU MATERIAU ------------------------
#

TGAUCHE=DEFI_FONCTION(    NOM_RESU='TEMP',  NOM_PARA='INST',
                                  VALE=(0.0E0,      200.0E0,
                                       10.0E0,      200.0E0,
                                       10.001E0,    100.0E0,
                                      100.0E0,      100.0E0, )
                           )

TDROITE=DEFI_FONCTION(    NOM_RESU='TEMP',  NOM_PARA='INST',
                                  VALE=(0.0E0,      100.0E0,
                                      100.0E0,      100.0E0, )
                            )

CONDUC=DEFI_FONCTION(    NOM_PARA='TEMP',  NOM_RESU='LAMBDA',
                                 VALE=(    0.0,       2.E2,
                                         500.0,       7.E2, ),
               PROL_DROITE='LINEAIRE',    PROL_GAUCHE='LINEAIRE' )

ENTHAL=DEFI_FONCTION(    NOM_PARA='TEMP',  NOM_RESU='CP',
                                 VALE=(    0.0,      0.0,
                                         500.0,   4000.E6, ),
               PROL_DROITE='LINEAIRE',    PROL_GAUCHE='LINEAIRE' )

MATER=DEFI_MATERIAU( THER_NL=_F(  LAMBDA = CONDUC,
                                    BETA = ENTHAL) )

#
# AFFECTATIONS: MATERIAU, MODELE, CHARGEMENT ----------------------
#


CHMAT=AFFE_MATERIAU(  MAILLAGE=MAIL,
                 AFFE=_F(  TOUT = 'OUI', MATER = MATER) )

MOTH=AFFE_MODELE(  MAILLAGE=MAIL,
                         AFFE=_F( TOUT = 'OUI', MODELISATION = 'PLAN',
                                          PHENOMENE = 'THERMIQUE'))

CHTH=AFFE_CHAR_THER_F(MODELE=MOTH,TEMP_IMPO=(
              _F( GROUP_NO = 'NOE_GAU', TEMP = TGAUCHE),
              _F( GROUP_NO = 'NOE_DRO', TEMP = TDROITE))
              )

#
# DEFINITION DE LA STATEGIE DE CALCUL -----------------------------
#

LR8=DEFI_LIST_REEL(        DEBUT=0.,INTERVALLE=(
                   _F(    JUSQU_A = 1.E-3, NOMBRE = 10),
                   _F(    JUSQU_A = 1.E-2, NOMBRE = 9),
                   _F(    JUSQU_A = 1.E-1, NOMBRE = 9),
                   _F(    JUSQU_A = 1.E0,  NOMBRE = 9),
                   _F(    JUSQU_A = 10.E0,  NOMBRE = 9),
                   _F(    JUSQU_A = 13.E0,  NOMBRE = 3))
                              )

#
# RESOLUTION ------------------------------------------------------
#

TEMPE=THER_NON_LINE(           MODELE=MOTH,
                   ETAT_INIT=_F(    VALE = 100.0),
                    INCREMENT=_F(   LIST_INST = LR8),
                   CHAM_MATER=CHMAT,
                        EXCIT=_F(  CHARGE = CHTH)
                 )

TEMP_10=CREA_CHAMP(  OPERATION='EXTR', TYPE_CHAM='NOEU_TEMP_R',
NOM_CHAM='TEMP', RESULTAT=TEMPE,
             INST=10.0 )

TEMP_13=CREA_CHAMP(  OPERATION='EXTR', TYPE_CHAM='NOEU_TEMP_R',
NOM_CHAM='TEMP', RESULTAT=TEMPE,
             INST=13.0 )

#
# ANALYSE DES RESULTATS -------------------------------------------
#

TEST_RESU(CHAM_NO=(_F(NOEUD='N8',
                      NOM_CMP='TEMP',
                      PRECISION=0.02,
                      CHAM_GD=TEMP_10,
                      VALE_CALC=175.611550486,
                      VALE_REFE=176.16499999999999,
                      REFERENCE='NON_DEFINI',),
                   _F(NOEUD='N10',
                      NOM_CMP='TEMP',
                      PRECISION=0.02,
                      CHAM_GD=TEMP_10,
                      VALE_CALC=175.543110238,
                      VALE_REFE=176.16499999999999,
                      REFERENCE='NON_DEFINI',),
                   _F(NOEUD='N12',
                      NOM_CMP='TEMP',
                      PRECISION=0.02,
                      CHAM_GD=TEMP_10,
                      VALE_CALC=175.760913209,
                      VALE_REFE=176.16499999999999,
                      REFERENCE='NON_DEFINI',),
                   _F(NOEUD='N14',
                      NOM_CMP='TEMP',
                      PRECISION=0.02,
                      CHAM_GD=TEMP_10,
                      VALE_CALC=175.465185847,
                      VALE_REFE=176.16499999999999,
                      REFERENCE='NON_DEFINI',),
                   _F(NOEUD='N8',
                      CRITERE='ABSOLU',
                      NOM_CMP='TEMP',
                      PRECISION=3.0,
                      CHAM_GD=TEMP_10,
                      VALE_CALC=175.611550486,
                      VALE_REFE=176.16499999999999,
                      REFERENCE='NON_DEFINI',),
                   _F(NOEUD='N10',
                      CRITERE='ABSOLU',
                      NOM_CMP='TEMP',
                      PRECISION=3.0,
                      CHAM_GD=TEMP_10,
                      VALE_CALC=175.543110238,
                      VALE_REFE=176.16499999999999,
                      REFERENCE='NON_DEFINI',),
                   _F(NOEUD='N12',
                      CRITERE='ABSOLU',
                      NOM_CMP='TEMP',
                      PRECISION=3.0,
                      CHAM_GD=TEMP_10,
                      VALE_CALC=175.760913209,
                      VALE_REFE=176.16499999999999,
                      REFERENCE='NON_DEFINI',),
                   _F(NOEUD='N14',
                      CRITERE='ABSOLU',
                      NOM_CMP='TEMP',
                      PRECISION=3.0,
                      CHAM_GD=TEMP_10,
                      VALE_CALC=175.465185847,
                      VALE_REFE=176.16499999999999,
                      REFERENCE='NON_DEFINI',),
                   _F(NOEUD='N15',
                      NOM_CMP='TEMP',
                      PRECISION=0.02,
                      CHAM_GD=TEMP_10,
                      VALE_CALC=152.239832757,
                      VALE_REFE=153.21299999999999,
                      REFERENCE='NON_DEFINI',),
                   _F(NOEUD='N17',
                      NOM_CMP='TEMP',
                      PRECISION=0.02,
                      CHAM_GD=TEMP_10,
                      VALE_CALC=152.168107297,
                      VALE_REFE=153.21299999999999,
                      REFERENCE='NON_DEFINI',),
                   _F(NOEUD='N19',
                      NOM_CMP='TEMP',
                      PRECISION=0.02,
                      CHAM_GD=TEMP_10,
                      VALE_CALC=152.367705205,
                      VALE_REFE=153.21299999999999,
                      REFERENCE='NON_DEFINI',),
                   _F(NOEUD='N21',
                      NOM_CMP='TEMP',
                      PRECISION=0.02,
                      CHAM_GD=TEMP_10,
                      VALE_CALC=152.074565636,
                      VALE_REFE=153.21299999999999,
                      REFERENCE='NON_DEFINI',),
                   _F(NOEUD='N15',
                      CRITERE='ABSOLU',
                      NOM_CMP='TEMP',
                      PRECISION=3.0,
                      CHAM_GD=TEMP_10,
                      VALE_CALC=152.239832757,
                      VALE_REFE=153.21299999999999,
                      REFERENCE='NON_DEFINI',),
                   _F(NOEUD='N17',
                      CRITERE='ABSOLU',
                      NOM_CMP='TEMP',
                      PRECISION=3.0,
                      CHAM_GD=TEMP_10,
                      VALE_CALC=152.168107297,
                      VALE_REFE=153.21299999999999,
                      REFERENCE='NON_DEFINI',),
                   _F(NOEUD='N19',
                      CRITERE='ABSOLU',
                      NOM_CMP='TEMP',
                      PRECISION=3.0,
                      CHAM_GD=TEMP_10,
                      VALE_CALC=152.367705205,
                      VALE_REFE=153.21299999999999,
                      REFERENCE='NON_DEFINI',),
                   _F(NOEUD='N21',
                      CRITERE='ABSOLU',
                      NOM_CMP='TEMP',
                      PRECISION=3.0,
                      CHAM_GD=TEMP_10,
                      VALE_CALC=152.074565636,
                      VALE_REFE=153.21299999999999,
                      REFERENCE='NON_DEFINI',),
                   _F(NOEUD='N29',
                      NOM_CMP='TEMP',
                      PRECISION=0.02,
                      CHAM_GD=TEMP_10,
                      VALE_CALC=117.670588714,
                      VALE_REFE=118.59999999999999,
                      REFERENCE='NON_DEFINI',),
                   _F(NOEUD='N31',
                      NOM_CMP='TEMP',
                      PRECISION=0.02,
                      CHAM_GD=TEMP_10,
                      VALE_CALC=117.653746413,
                      VALE_REFE=118.59999999999999,
                      REFERENCE='NON_DEFINI',),
                   _F(NOEUD='N33',
                      NOM_CMP='TEMP',
                      PRECISION=0.02,
                      CHAM_GD=TEMP_10,
                      VALE_CALC=117.522294711,
                      VALE_REFE=118.59999999999999,
                      REFERENCE='NON_DEFINI',),
                   _F(NOEUD='N35',
                      NOM_CMP='TEMP',
                      PRECISION=0.02,
                      CHAM_GD=TEMP_10,
                      VALE_CALC=117.635874446,
                      VALE_REFE=118.59999999999999,
                      REFERENCE='NON_DEFINI',),
                   _F(NOEUD='N29',
                      CRITERE='ABSOLU',
                      NOM_CMP='TEMP',
                      PRECISION=3.0,
                      CHAM_GD=TEMP_10,
                      VALE_CALC=117.670588714,
                      VALE_REFE=118.59999999999999,
                      REFERENCE='NON_DEFINI',),
                   _F(NOEUD='N31',
                      CRITERE='ABSOLU',
                      NOM_CMP='TEMP',
                      PRECISION=3.0,
                      CHAM_GD=TEMP_10,
                      VALE_CALC=117.653746413,
                      VALE_REFE=118.59999999999999,
                      REFERENCE='NON_DEFINI',),
                   _F(NOEUD='N33',
                      CRITERE='ABSOLU',
                      NOM_CMP='TEMP',
                      PRECISION=3.0,
                      CHAM_GD=TEMP_10,
                      VALE_CALC=117.522294711,
                      VALE_REFE=118.59999999999999,
                      REFERENCE='NON_DEFINI',),
                   _F(NOEUD='N35',
                      CRITERE='ABSOLU',
                      NOM_CMP='TEMP',
                      PRECISION=3.0,
                      CHAM_GD=TEMP_10,
                      VALE_CALC=117.635874446,
                      VALE_REFE=118.59999999999999,
                      REFERENCE='NON_DEFINI',),
                   _F(NOEUD='N43',
                      NOM_CMP='TEMP',
                      PRECISION=0.02,
                      CHAM_GD=TEMP_10,
                      VALE_CALC=103.425340423,
                      VALE_REFE=103.715,
                      REFERENCE='NON_DEFINI',),
                   _F(NOEUD='N45',
                      NOM_CMP='TEMP',
                      PRECISION=0.02,
                      CHAM_GD=TEMP_10,
                      VALE_CALC=103.440946930,
                      VALE_REFE=103.715,
                      REFERENCE='NON_DEFINI',),
                   _F(NOEUD='N47',
                      NOM_CMP='TEMP',
                      PRECISION=0.02,
                      CHAM_GD=TEMP_10,
                      VALE_CALC=103.212408480,
                      VALE_REFE=103.715,
                      REFERENCE='NON_DEFINI',),
                   _F(NOEUD='N49',
                      NOM_CMP='TEMP',
                      PRECISION=0.02,
                      CHAM_GD=TEMP_10,
                      VALE_CALC=103.473398711,
                      VALE_REFE=103.715,
                      REFERENCE='NON_DEFINI',),
                   _F(NOEUD='N43',
                      CRITERE='ABSOLU',
                      NOM_CMP='TEMP',
                      PRECISION=3.0,
                      CHAM_GD=TEMP_10,
                      VALE_CALC=103.425340423,
                      VALE_REFE=103.715,
                      REFERENCE='NON_DEFINI',),
                   _F(NOEUD='N45',
                      CRITERE='ABSOLU',
                      NOM_CMP='TEMP',
                      PRECISION=3.0,
                      CHAM_GD=TEMP_10,
                      VALE_CALC=103.440946930,
                      VALE_REFE=103.715,
                      REFERENCE='NON_DEFINI',),
                   _F(NOEUD='N47',
                      CRITERE='ABSOLU',
                      NOM_CMP='TEMP',
                      PRECISION=3.0,
                      CHAM_GD=TEMP_10,
                      VALE_CALC=103.212408480,
                      VALE_REFE=103.715,
                      REFERENCE='NON_DEFINI',),
                   _F(NOEUD='N49',
                      CRITERE='ABSOLU',
                      NOM_CMP='TEMP',
                      PRECISION=3.0,
                      CHAM_GD=TEMP_10,
                      VALE_CALC=103.473398711,
                      VALE_REFE=103.715,
                      REFERENCE='NON_DEFINI',),
                   _F(NOEUD='N57',
                      NOM_CMP='TEMP',
                      PRECISION=0.02,
                      CHAM_GD=TEMP_10,
                      VALE_CALC=100.349298809,
                      VALE_REFE=100.36799999999999,
                      REFERENCE='NON_DEFINI',),
                   _F(NOEUD='N59',
                      NOM_CMP='TEMP',
                      PRECISION=0.02,
                      CHAM_GD=TEMP_10,
                      VALE_CALC=100.355232045,
                      VALE_REFE=100.36799999999999,
                      REFERENCE='NON_DEFINI',),
                   _F(NOEUD='N61',
                      NOM_CMP='TEMP',
                      PRECISION=0.02,
                      CHAM_GD=TEMP_10,
                      VALE_CALC=100.268301365,
                      VALE_REFE=100.36799999999999,
                      REFERENCE='NON_DEFINI',),
                   _F(NOEUD='N63',
                      NOM_CMP='TEMP',
                      PRECISION=0.02,
                      CHAM_GD=TEMP_10,
                      VALE_CALC=100.370727446,
                      VALE_REFE=100.36799999999999,
                      REFERENCE='NON_DEFINI',),
                   _F(NOEUD='N57',
                      CRITERE='ABSOLU',
                      NOM_CMP='TEMP',
                      PRECISION=3.0,
                      CHAM_GD=TEMP_10,
                      VALE_CALC=100.349298809,
                      VALE_REFE=100.36799999999999,
                      REFERENCE='NON_DEFINI',),
                   _F(NOEUD='N59',
                      CRITERE='ABSOLU',
                      NOM_CMP='TEMP',
                      PRECISION=3.0,
                      CHAM_GD=TEMP_10,
                      VALE_CALC=100.355232045,
                      VALE_REFE=100.36799999999999,
                      REFERENCE='NON_DEFINI',),
                   _F(NOEUD='N61',
                      CRITERE='ABSOLU',
                      NOM_CMP='TEMP',
                      PRECISION=3.0,
                      CHAM_GD=TEMP_10,
                      VALE_CALC=100.268301365,
                      VALE_REFE=100.36799999999999,
                      REFERENCE='NON_DEFINI',),
                   _F(NOEUD='N63',
                      CRITERE='ABSOLU',
                      NOM_CMP='TEMP',
                      PRECISION=3.0,
                      CHAM_GD=TEMP_10,
                      VALE_CALC=100.370727446,
                      VALE_REFE=100.36799999999999,
                      REFERENCE='NON_DEFINI',),
                   _F(NOEUD='N71',
                      NOM_CMP='TEMP',
                      PRECISION=0.02,
                      CHAM_GD=TEMP_10,
                      VALE_CALC=100.016969091,
                      VALE_REFE=100.014,
                      REFERENCE='NON_DEFINI',),
                   _F(NOEUD='N73',
                      NOM_CMP='TEMP',
                      PRECISION=0.02,
                      CHAM_GD=TEMP_10,
                      VALE_CALC=100.017288273,
                      VALE_REFE=100.014,
                      REFERENCE='NON_DEFINI',),
                   _F(NOEUD='N75',
                      NOM_CMP='TEMP',
                      PRECISION=0.02,
                      CHAM_GD=TEMP_10,
                      VALE_CALC=100.003967318,
                      VALE_REFE=100.014,
                      REFERENCE='NON_DEFINI',),
                   _F(NOEUD='N77',
                      NOM_CMP='TEMP',
                      PRECISION=0.02,
                      CHAM_GD=TEMP_10,
                      VALE_CALC=100.019434576,
                      VALE_REFE=100.014,
                      REFERENCE='NON_DEFINI',),
                   _F(NOEUD='N71',
                      CRITERE='ABSOLU',
                      NOM_CMP='TEMP',
                      PRECISION=3.0,
                      CHAM_GD=TEMP_10,
                      VALE_CALC=100.016969091,
                      VALE_REFE=100.014,
                      REFERENCE='NON_DEFINI',),
                   _F(NOEUD='N73',
                      CRITERE='ABSOLU',
                      NOM_CMP='TEMP',
                      PRECISION=3.0,
                      CHAM_GD=TEMP_10,
                      VALE_CALC=100.017288273,
                      VALE_REFE=100.014,
                      REFERENCE='NON_DEFINI',),
                   _F(NOEUD='N75',
                      CRITERE='ABSOLU',
                      NOM_CMP='TEMP',
                      PRECISION=3.0,
                      CHAM_GD=TEMP_10,
                      VALE_CALC=100.003967318,
                      VALE_REFE=100.014,
                      REFERENCE='NON_DEFINI',),
                   _F(NOEUD='N77',
                      CRITERE='ABSOLU',
                      NOM_CMP='TEMP',
                      PRECISION=3.0,
                      CHAM_GD=TEMP_10,
                      VALE_CALC=100.019434576,
                      VALE_REFE=100.014,
                      REFERENCE='NON_DEFINI',),
                   _F(NOEUD='N8',
                      NOM_CMP='TEMP',
                      PRECISION=0.02,
                      CHAM_GD=TEMP_13,
                      VALE_CALC=128.608549151,
                      VALE_REFE=128.125,
                      REFERENCE='NON_DEFINI',),
                   _F(NOEUD='N10',
                      NOM_CMP='TEMP',
                      PRECISION=0.02,
                      CHAM_GD=TEMP_13,
                      VALE_CALC=128.835530256,
                      VALE_REFE=128.125,
                      REFERENCE='NON_DEFINI',),
                   _F(NOEUD='N12',
                      NOM_CMP='TEMP',
                      PRECISION=0.02,
                      CHAM_GD=TEMP_13,
                      VALE_CALC=129.189989042,
                      VALE_REFE=128.125,
                      REFERENCE='NON_DEFINI',),
                   _F(NOEUD='N14',
                      NOM_CMP='TEMP',
                      PRECISION=0.02,
                      CHAM_GD=TEMP_13,
                      VALE_CALC=128.696651456,
                      VALE_REFE=128.125,
                      REFERENCE='NON_DEFINI',),
                   _F(NOEUD='N8',
                      CRITERE='ABSOLU',
                      NOM_CMP='TEMP',
                      PRECISION=3.0,
                      CHAM_GD=TEMP_13,
                      VALE_CALC=128.608549151,
                      VALE_REFE=128.125,
                      REFERENCE='NON_DEFINI',),
                   _F(NOEUD='N10',
                      CRITERE='ABSOLU',
                      NOM_CMP='TEMP',
                      PRECISION=3.0,
                      CHAM_GD=TEMP_13,
                      VALE_CALC=128.835530256,
                      VALE_REFE=128.125,
                      REFERENCE='NON_DEFINI',),
                   _F(NOEUD='N12',
                      CRITERE='ABSOLU',
                      NOM_CMP='TEMP',
                      PRECISION=3.0,
                      CHAM_GD=TEMP_13,
                      VALE_CALC=129.189989042,
                      VALE_REFE=128.125,
                      REFERENCE='NON_DEFINI',),
                   _F(NOEUD='N14',
                      CRITERE='ABSOLU',
                      NOM_CMP='TEMP',
                      PRECISION=3.0,
                      CHAM_GD=TEMP_13,
                      VALE_CALC=128.696651456,
                      VALE_REFE=128.125,
                      REFERENCE='NON_DEFINI',),
                   _F(NOEUD='N15',
                      NOM_CMP='TEMP',
                      PRECISION=0.02,
                      CHAM_GD=TEMP_13,
                      VALE_CALC=140.068172604,
                      VALE_REFE=139.97,
                      REFERENCE='NON_DEFINI',),
                   _F(NOEUD='N17',
                      NOM_CMP='TEMP',
                      PRECISION=0.02,
                      CHAM_GD=TEMP_13,
                      VALE_CALC=140.116816662,
                      VALE_REFE=139.97,
                      REFERENCE='NON_DEFINI',),
                   _F(NOEUD='N19',
                      NOM_CMP='TEMP',
                      PRECISION=0.02,
                      CHAM_GD=TEMP_13,
                      VALE_CALC=140.587213277,
                      VALE_REFE=139.97,
                      REFERENCE='NON_DEFINI',),
                   _F(NOEUD='N21',
                      NOM_CMP='TEMP',
                      PRECISION=0.02,
                      CHAM_GD=TEMP_13,
                      VALE_CALC=139.927148819,
                      VALE_REFE=139.97,
                      REFERENCE='NON_DEFINI',),
                   _F(NOEUD='N15',
                      CRITERE='ABSOLU',
                      NOM_CMP='TEMP',
                      PRECISION=3.0,
                      CHAM_GD=TEMP_13,
                      VALE_CALC=140.068172604,
                      VALE_REFE=139.97,
                      REFERENCE='NON_DEFINI',),
                   _F(NOEUD='N17',
                      CRITERE='ABSOLU',
                      NOM_CMP='TEMP',
                      PRECISION=3.0,
                      CHAM_GD=TEMP_13,
                      VALE_CALC=140.116816662,
                      VALE_REFE=139.97,
                      REFERENCE='NON_DEFINI',),
                   _F(NOEUD='N19',
                      CRITERE='ABSOLU',
                      NOM_CMP='TEMP',
                      PRECISION=3.0,
                      CHAM_GD=TEMP_13,
                      VALE_CALC=140.587213277,
                      VALE_REFE=139.97,
                      REFERENCE='NON_DEFINI',),
                   _F(NOEUD='N21',
                      CRITERE='ABSOLU',
                      NOM_CMP='TEMP',
                      PRECISION=3.0,
                      CHAM_GD=TEMP_13,
                      VALE_CALC=139.927148819,
                      VALE_REFE=139.97,
                      REFERENCE='NON_DEFINI',),
                   _F(NOEUD='N29',
                      NOM_CMP='TEMP',
                      PRECISION=0.02,
                      CHAM_GD=TEMP_13,
                      VALE_CALC=123.762338543,
                      VALE_REFE=124.71899999999999,
                      REFERENCE='NON_DEFINI',),
                   _F(NOEUD='N31',
                      NOM_CMP='TEMP',
                      PRECISION=0.02,
                      CHAM_GD=TEMP_13,
                      VALE_CALC=123.640782901,
                      VALE_REFE=124.71899999999999,
                      REFERENCE='NON_DEFINI',),
                   _F(NOEUD='N33',
                      NOM_CMP='TEMP',
                      PRECISION=0.02,
                      CHAM_GD=TEMP_13,
                      VALE_CALC=124.245673722,
                      VALE_REFE=124.71899999999999,
                      REFERENCE='NON_DEFINI',),
                   _F(NOEUD='N35',
                      NOM_CMP='TEMP',
                      PRECISION=0.02,
                      CHAM_GD=TEMP_13,
                      VALE_CALC=123.413866344,
                      VALE_REFE=124.71899999999999,
                      REFERENCE='NON_DEFINI',),
                   _F(NOEUD='N29',
                      CRITERE='ABSOLU',
                      NOM_CMP='TEMP',
                      PRECISION=3.0,
                      CHAM_GD=TEMP_13,
                      VALE_CALC=123.762338543,
                      VALE_REFE=124.71899999999999,
                      REFERENCE='NON_DEFINI',),
                   _F(NOEUD='N31',
                      CRITERE='ABSOLU',
                      NOM_CMP='TEMP',
                      PRECISION=3.0,
                      CHAM_GD=TEMP_13,
                      VALE_CALC=123.640782901,
                      VALE_REFE=124.71899999999999,
                      REFERENCE='NON_DEFINI',),
                   _F(NOEUD='N33',
                      CRITERE='ABSOLU',
                      NOM_CMP='TEMP',
                      PRECISION=3.0,
                      CHAM_GD=TEMP_13,
                      VALE_CALC=124.245673722,
                      VALE_REFE=124.71899999999999,
                      REFERENCE='NON_DEFINI',),
                   _F(NOEUD='N35',
                      CRITERE='ABSOLU',
                      NOM_CMP='TEMP',
                      PRECISION=3.0,
                      CHAM_GD=TEMP_13,
                      VALE_CALC=123.413866344,
                      VALE_REFE=124.71899999999999,
                      REFERENCE='NON_DEFINI',),
                   _F(NOEUD='N43',
                      NOM_CMP='TEMP',
                      PRECISION=0.02,
                      CHAM_GD=TEMP_13,
                      VALE_CALC=106.789990697,
                      VALE_REFE=107.182,
                      REFERENCE='NON_DEFINI',),
                   _F(NOEUD='N45',
                      NOM_CMP='TEMP',
                      PRECISION=0.02,
                      CHAM_GD=TEMP_13,
                      VALE_CALC=106.795045022,
                      VALE_REFE=107.182,
                      REFERENCE='NON_DEFINI',),
                   _F(NOEUD='N47',
                      NOM_CMP='TEMP',
                      PRECISION=0.02,
                      CHAM_GD=TEMP_13,
                      VALE_CALC=106.643214699,
                      VALE_REFE=107.182,
                      REFERENCE='NON_DEFINI',),
                   _F(NOEUD='N49',
                      NOM_CMP='TEMP',
                      PRECISION=0.02,
                      CHAM_GD=TEMP_13,
                      VALE_CALC=106.799979362,
                      VALE_REFE=107.182,
                      REFERENCE='NON_DEFINI',),
                   _F(NOEUD='N43',
                      CRITERE='ABSOLU',
                      NOM_CMP='TEMP',
                      PRECISION=3.0,
                      CHAM_GD=TEMP_13,
                      VALE_CALC=106.789990697,
                      VALE_REFE=107.182,
                      REFERENCE='NON_DEFINI',),
                   _F(NOEUD='N45',
                      CRITERE='ABSOLU',
                      NOM_CMP='TEMP',
                      PRECISION=3.0,
                      CHAM_GD=TEMP_13,
                      VALE_CALC=106.795045022,
                      VALE_REFE=107.182,
                      REFERENCE='NON_DEFINI',),
                   _F(NOEUD='N47',
                      CRITERE='ABSOLU',
                      NOM_CMP='TEMP',
                      PRECISION=3.0,
                      CHAM_GD=TEMP_13,
                      VALE_CALC=106.643214699,
                      VALE_REFE=107.182,
                      REFERENCE='NON_DEFINI',),
                   _F(NOEUD='N49',
                      CRITERE='ABSOLU',
                      NOM_CMP='TEMP',
                      PRECISION=3.0,
                      CHAM_GD=TEMP_13,
                      VALE_CALC=106.799979362,
                      VALE_REFE=107.182,
                      REFERENCE='NON_DEFINI',),
                   _F(NOEUD='N57',
                      NOM_CMP='TEMP',
                      PRECISION=0.02,
                      CHAM_GD=TEMP_13,
                      VALE_CALC=101.215446804,
                      VALE_REFE=101.29000000000001,
                      REFERENCE='NON_DEFINI',),
                   _F(NOEUD='N59',
                      NOM_CMP='TEMP',
                      PRECISION=0.02,
                      CHAM_GD=TEMP_13,
                      VALE_CALC=101.221423225,
                      VALE_REFE=101.29000000000001,
                      REFERENCE='NON_DEFINI',),
                   _F(NOEUD='N61',
                      NOM_CMP='TEMP',
                      PRECISION=0.02,
                      CHAM_GD=TEMP_13,
                      VALE_CALC=101.112079856,
                      VALE_REFE=101.29000000000001,
                      REFERENCE='NON_DEFINI',),
                   _F(NOEUD='N63',
                      NOM_CMP='TEMP',
                      PRECISION=0.02,
                      CHAM_GD=TEMP_13,
                      VALE_CALC=101.234791565,
                      VALE_REFE=101.29000000000001,
                      REFERENCE='NON_DEFINI',),
                   _F(NOEUD='N57',
                      CRITERE='ABSOLU',
                      NOM_CMP='TEMP',
                      PRECISION=3.0,
                      CHAM_GD=TEMP_13,
                      VALE_CALC=101.215446804,
                      VALE_REFE=101.29000000000001,
                      REFERENCE='NON_DEFINI',),
                   _F(NOEUD='N59',
                      CRITERE='ABSOLU',
                      NOM_CMP='TEMP',
                      PRECISION=3.0,
                      CHAM_GD=TEMP_13,
                      VALE_CALC=101.221423225,
                      VALE_REFE=101.29000000000001,
                      REFERENCE='NON_DEFINI',),
                   _F(NOEUD='N61',
                      CRITERE='ABSOLU',
                      NOM_CMP='TEMP',
                      PRECISION=3.0,
                      CHAM_GD=TEMP_13,
                      VALE_CALC=101.112079856,
                      VALE_REFE=101.29000000000001,
                      REFERENCE='NON_DEFINI',),
                   _F(NOEUD='N63',
                      CRITERE='ABSOLU',
                      NOM_CMP='TEMP',
                      PRECISION=3.0,
                      CHAM_GD=TEMP_13,
                      VALE_CALC=101.234791565,
                      VALE_REFE=101.29000000000001,
                      REFERENCE='NON_DEFINI',),
                   _F(NOEUD='N71',
                      NOM_CMP='TEMP',
                      PRECISION=0.02,
                      CHAM_GD=TEMP_13,
                      VALE_CALC=100.132984360,
                      VALE_REFE=100.134,
                      REFERENCE='NON_DEFINI',),
                   _F(NOEUD='N73',
                      NOM_CMP='TEMP',
                      PRECISION=0.02,
                      CHAM_GD=TEMP_13,
                      VALE_CALC=100.134242344,
                      VALE_REFE=100.134,
                      REFERENCE='NON_DEFINI',),
                   _F(NOEUD='N75',
                      NOM_CMP='TEMP',
                      PRECISION=0.02,
                      CHAM_GD=TEMP_13,
                      VALE_CALC=100.102561364,
                      VALE_REFE=100.134,
                      REFERENCE='NON_DEFINI',),
                   _F(NOEUD='N77',
                      NOM_CMP='TEMP',
                      PRECISION=0.02,
                      CHAM_GD=TEMP_13,
                      VALE_CALC=100.138332816,
                      VALE_REFE=100.134,
                      REFERENCE='NON_DEFINI',),
                   _F(NOEUD='N71',
                      CRITERE='ABSOLU',
                      NOM_CMP='TEMP',
                      PRECISION=3.0,
                      CHAM_GD=TEMP_13,
                      VALE_CALC=100.132984360,
                      VALE_REFE=100.134,
                      REFERENCE='NON_DEFINI',),
                   _F(NOEUD='N73',
                      CRITERE='ABSOLU',
                      NOM_CMP='TEMP',
                      PRECISION=3.0,
                      CHAM_GD=TEMP_13,
                      VALE_CALC=100.134242344,
                      VALE_REFE=100.134,
                      REFERENCE='NON_DEFINI',),
                   _F(NOEUD='N75',
                      CRITERE='ABSOLU',
                      NOM_CMP='TEMP',
                      PRECISION=3.0,
                      CHAM_GD=TEMP_13,
                      VALE_CALC=100.102561364,
                      VALE_REFE=100.134,
                      REFERENCE='NON_DEFINI',),
                   _F(NOEUD='N77',
                      CRITERE='ABSOLU',
                      NOM_CMP='TEMP',
                      PRECISION=3.0,
                      CHAM_GD=TEMP_13,
                      VALE_CALC=100.138332816,
                      VALE_REFE=100.134,
                      REFERENCE='NON_DEFINI',),
                   ),
          )

FIN()
#
