# TITRE MUR INFINI SOUMIS A UN SAUT DE TEMPERATURE
# ======================================================================
# COPYRIGHT (C) 1991 - 2012  EDF R&D                  WWW.CODE-ASTER.ORG
# THIS PROGRAM IS FREE SOFTWARE; YOU CAN REDISTRIBUTE IT AND/OR MODIFY
# IT UNDER THE TERMS OF THE GNU GENERAL PUBLIC LICENSE AS PUBLISHED BY
# THE FREE SOFTWARE FOUNDATION; EITHER VERSION 2 OF THE LICENSE, OR
# (AT YOUR OPTION) ANY LATER VERSION.
#
# THIS PROGRAM IS DISTRIBUTED IN THE HOPE THAT IT WILL BE USEFUL, BUT
# WITHOUT ANY WARRANTY; WITHOUT EVEN THE IMPLIED WARRANTY OF
# MERCHANTABILITY OR FITNESS FOR A PARTICULAR PURPOSE. SEE THE GNU
# GENERAL PUBLIC LICENSE FOR MORE DETAILS.
#
# YOU SHOULD HAVE RECEIVED A COPY OF THE GNU GENERAL PUBLIC LICENSE
# ALONG WITH THIS PROGRAM; IF NOT, WRITE TO EDF R&D CODE_ASTER,
#    1 AVENUE DU GENERAL DE GAULLE, 92141 CLAMART CEDEX, FRANCE.
# ======================================================================
#       AVEC PROPRIETES VARIABLES
# MAILLES : PENTA6
#

DEBUT(CODE=_F(NOM='TTNL303B',NIV_PUB_WEB='INTERNET'),DEBUG=_F(SDVERI='OUI'))

#
# LECTURE DU MAILLAGE ----------------------------------------------
#

MAIL=LIRE_MAILLAGE(FORMAT='MED', )

#
# DEFINITION DES CHARGEMENTS ET DU MATERIAU ------------------------
#

TGAUCHE=DEFI_FONCTION(    NOM_RESU='TEMP',  NOM_PARA='INST',
                                  VALE=(0.0E0,      200.0E0,
                                       10.0E0,      200.0E0,
                                       10.001E0,    100.0E0,
                                      100.0E0,      100.0E0, )
                           )

TDROITE=DEFI_FONCTION(    NOM_RESU='TEMP',  NOM_PARA='INST',
                                  VALE=(0.0E0,      100.0E0,
                                      100.0E0,      100.0E0, )
                            )

CONDUC=DEFI_FONCTION(    NOM_PARA='TEMP',  NOM_RESU='LAMBDA',
                                 VALE=(    0.0,       2.E2,
                                         500.0,       7.E2, ),
               PROL_DROITE='LINEAIRE',    PROL_GAUCHE='LINEAIRE' )

ENTHAL=DEFI_FONCTION(    NOM_PARA='TEMP',  NOM_RESU='CP',
                                 VALE=(    0.0,      0.0,
                                         500.0,   4000.E6, ),
               PROL_DROITE='LINEAIRE',    PROL_GAUCHE='LINEAIRE' )

MATER=DEFI_MATERIAU( THER_NL=_F(  LAMBDA = CONDUC,
                                    BETA = ENTHAL) )

#
# AFFECTATIONS: MATERIAU, MODELE, CHARGEMENT ----------------------
#


CHMAT=AFFE_MATERIAU(  MAILLAGE=MAIL,
                 AFFE=_F(  TOUT = 'OUI', MATER = MATER) )

MOTH=AFFE_MODELE(  MAILLAGE=MAIL,
                         AFFE=_F( TOUT = 'OUI', MODELISATION = '3D',
                                          PHENOMENE = 'THERMIQUE'))

CHTH=AFFE_CHAR_THER_F(MODELE=MOTH,TEMP_IMPO=(
              _F( GROUP_NO = 'NOE_GAU', TEMP = TGAUCHE),
              _F( GROUP_NO = 'NOE_DRO', TEMP = TDROITE))
              )

#
# DEFINITION DE LA STATEGIE DE CALCUL -----------------------------
#

LR8=DEFI_LIST_REEL(        DEBUT=0.,INTERVALLE=(
                   _F(    JUSQU_A = 1.E-3, NOMBRE = 10),
                   _F(    JUSQU_A = 1.E-2, NOMBRE = 9),
                   _F(    JUSQU_A = 1.E-1, NOMBRE = 9),
                   _F(    JUSQU_A = 1.E0,  NOMBRE = 9),
                   _F(    JUSQU_A = 10.E0,  NOMBRE = 9),
                   _F(    JUSQU_A = 13.E0,  NOMBRE = 3))
                              )

#
# RESOLUTION ------------------------------------------------------
#

TEMPE=THER_NON_LINE(           MODELE=MOTH,
                   ETAT_INIT=_F(    VALE = 100.0),
                    INCREMENT=_F(   LIST_INST = LR8),
                   CHAM_MATER=CHMAT,
                        EXCIT=_F(  CHARGE = CHTH)
                 )

TEMP_10=CREA_CHAMP(  OPERATION='EXTR', TYPE_CHAM='NOEU_TEMP_R',
NOM_CHAM='TEMP', RESULTAT=TEMPE,
             INST=10.0 )

TEMP_13=CREA_CHAMP(  OPERATION='EXTR', TYPE_CHAM='NOEU_TEMP_R',
NOM_CHAM='TEMP', RESULTAT=TEMPE,
             INST=13.0 )

#
# ANALYSE DES RESULTATS -------------------------------------------
#

TEST_RESU(CHAM_NO=(_F(NOEUD='N10',
                      NOM_CMP='TEMP',
                      PRECISION=1.E-2,
                      CHAM_GD=TEMP_10,
                      VALE_CALC=175.698124801,
                      VALE_REFE=176.16499999999999,
                      REFERENCE='NON_DEFINI',),
                   _F(NOEUD='N19',
                      NOM_CMP='TEMP',
                      PRECISION=1.E-2,
                      CHAM_GD=TEMP_10,
                      VALE_CALC=152.307307970,
                      VALE_REFE=153.21299999999999,
                      REFERENCE='NON_DEFINI',),
                   _F(NOEUD='N37',
                      NOM_CMP='TEMP',
                      PRECISION=1.E-2,
                      CHAM_GD=TEMP_10,
                      VALE_CALC=117.584867963,
                      VALE_REFE=118.59999999999999,
                      REFERENCE='NON_DEFINI',),
                   _F(NOEUD='N55',
                      NOM_CMP='TEMP',
                      PRECISION=1.E-2,
                      CHAM_GD=TEMP_10,
                      VALE_CALC=103.307413143,
                      VALE_REFE=103.715,
                      REFERENCE='NON_DEFINI',),
                   _F(NOEUD='N73',
                      NOM_CMP='TEMP',
                      PRECISION=1.E-2,
                      CHAM_GD=TEMP_10,
                      VALE_CALC=100.302287177,
                      VALE_REFE=100.36799999999999,
                      REFERENCE='NON_DEFINI',),
                   _F(NOEUD='N91',
                      NOM_CMP='TEMP',
                      PRECISION=1.E-2,
                      CHAM_GD=TEMP_10,
                      VALE_CALC=100.008253896,
                      VALE_REFE=100.014,
                      REFERENCE='NON_DEFINI',),
                   _F(NOEUD='N17',
                      NOM_CMP='TEMP',
                      PRECISION=1.E-2,
                      CHAM_GD=TEMP_10,
                      VALE_CALC=175.532852315,
                      VALE_REFE=176.16499999999999,
                      REFERENCE='NON_DEFINI',),
                   _F(NOEUD='N26',
                      NOM_CMP='TEMP',
                      PRECISION=1.E-2,
                      CHAM_GD=TEMP_10,
                      VALE_CALC=152.153627444,
                      VALE_REFE=153.21299999999999,
                      REFERENCE='NON_DEFINI',),
                   _F(NOEUD='N44',
                      NOM_CMP='TEMP',
                      PRECISION=1.E-2,
                      CHAM_GD=TEMP_10,
                      VALE_CALC=117.637861569,
                      VALE_REFE=118.59999999999999,
                      REFERENCE='NON_DEFINI',),
                   _F(NOEUD='N62',
                      NOM_CMP='TEMP',
                      PRECISION=1.E-2,
                      CHAM_GD=TEMP_10,
                      VALE_CALC=103.433464600,
                      VALE_REFE=103.715,
                      REFERENCE='NON_DEFINI',),
                   _F(NOEUD='N80',
                      NOM_CMP='TEMP',
                      PRECISION=1.E-2,
                      CHAM_GD=TEMP_10,
                      VALE_CALC=100.351678445,
                      VALE_REFE=100.36799999999999,
                      REFERENCE='NON_DEFINI',),
                   _F(NOEUD='N98',
                      NOM_CMP='TEMP',
                      PRECISION=1.E-2,
                      CHAM_GD=TEMP_10,
                      VALE_CALC=100.015834424,
                      VALE_REFE=100.014,
                      REFERENCE='NON_DEFINI',),
                   _F(NOEUD='N18',
                      NOM_CMP='TEMP',
                      PRECISION=1.E-2,
                      CHAM_GD=TEMP_10,
                      VALE_CALC=175.532852315,
                      VALE_REFE=176.16499999999999,
                      REFERENCE='NON_DEFINI',),
                   _F(NOEUD='N27',
                      NOM_CMP='TEMP',
                      PRECISION=1.E-2,
                      CHAM_GD=TEMP_10,
                      VALE_CALC=152.153627444,
                      VALE_REFE=153.21299999999999,
                      REFERENCE='NON_DEFINI',),
                   _F(NOEUD='N45',
                      NOM_CMP='TEMP',
                      PRECISION=1.E-2,
                      CHAM_GD=TEMP_10,
                      VALE_CALC=117.637861569,
                      VALE_REFE=118.59999999999999,
                      REFERENCE='NON_DEFINI',),
                   _F(NOEUD='N63',
                      NOM_CMP='TEMP',
                      PRECISION=1.E-2,
                      CHAM_GD=TEMP_10,
                      VALE_CALC=103.433464600,
                      VALE_REFE=103.715,
                      REFERENCE='NON_DEFINI',),
                   _F(NOEUD='N81',
                      NOM_CMP='TEMP',
                      PRECISION=1.E-2,
                      CHAM_GD=TEMP_10,
                      VALE_CALC=100.351678445,
                      VALE_REFE=100.36799999999999,
                      REFERENCE='NON_DEFINI',),
                   _F(NOEUD='N99',
                      NOM_CMP='TEMP',
                      PRECISION=1.E-2,
                      CHAM_GD=TEMP_10,
                      VALE_CALC=100.015834424,
                      VALE_REFE=100.014,
                      REFERENCE='NON_DEFINI',),
                   _F(NOEUD='N10',
                      NOM_CMP='TEMP',
                      PRECISION=0.02,
                      CHAM_GD=TEMP_13,
                      VALE_CALC=129.490146962,
                      VALE_REFE=128.125,
                      REFERENCE='NON_DEFINI',),
                   _F(NOEUD='N19',
                      NOM_CMP='TEMP',
                      PRECISION=1.E-2,
                      CHAM_GD=TEMP_13,
                      VALE_CALC=140.191467040,
                      VALE_REFE=139.97,
                      REFERENCE='NON_DEFINI',),
                   _F(NOEUD='N37',
                      NOM_CMP='TEMP',
                      PRECISION=1.E-2,
                      CHAM_GD=TEMP_13,
                      VALE_CALC=124.034680740,
                      VALE_REFE=124.71899999999999,
                      REFERENCE='NON_DEFINI',),
                   _F(NOEUD='N55',
                      NOM_CMP='TEMP',
                      PRECISION=1.E-2,
                      CHAM_GD=TEMP_13,
                      VALE_CALC=106.717857410,
                      VALE_REFE=107.182,
                      REFERENCE='NON_DEFINI',),
                   _F(NOEUD='N73',
                      NOM_CMP='TEMP',
                      PRECISION=1.E-2,
                      CHAM_GD=TEMP_13,
                      VALE_CALC=101.157028874,
                      VALE_REFE=101.29000000000001,
                      REFERENCE='NON_DEFINI',),
                   _F(NOEUD='N91',
                      NOM_CMP='TEMP',
                      PRECISION=1.E-2,
                      CHAM_GD=TEMP_13,
                      VALE_CALC=100.114601303,
                      VALE_REFE=100.134,
                      REFERENCE='NON_DEFINI',),
                   _F(NOEUD='N17',
                      NOM_CMP='TEMP',
                      PRECISION=1.E-2,
                      CHAM_GD=TEMP_13,
                      VALE_CALC=128.384501616,
                      VALE_REFE=128.125,
                      REFERENCE='NON_DEFINI',),
                   _F(NOEUD='N26',
                      NOM_CMP='TEMP',
                      PRECISION=1.E-2,
                      CHAM_GD=TEMP_13,
                      VALE_CALC=140.597637175,
                      VALE_REFE=139.97,
                      REFERENCE='NON_DEFINI',),
                   _F(NOEUD='N44',
                      NOM_CMP='TEMP',
                      PRECISION=1.E-2,
                      CHAM_GD=TEMP_13,
                      VALE_CALC=123.620367266,
                      VALE_REFE=124.71899999999999,
                      REFERENCE='NON_DEFINI',),
                   _F(NOEUD='N62',
                      NOM_CMP='TEMP',
                      PRECISION=1.E-2,
                      CHAM_GD=TEMP_13,
                      VALE_CALC=106.789364271,
                      VALE_REFE=107.182,
                      REFERENCE='NON_DEFINI',),
                   _F(NOEUD='N80',
                      NOM_CMP='TEMP',
                      PRECISION=1.E-2,
                      CHAM_GD=TEMP_13,
                      VALE_CALC=101.216648872,
                      VALE_REFE=101.29000000000001,
                      REFERENCE='NON_DEFINI',),
                   _F(NOEUD='N98',
                      NOM_CMP='TEMP',
                      PRECISION=1.E-2,
                      CHAM_GD=TEMP_13,
                      VALE_CALC=100.132016641,
                      VALE_REFE=100.134,
                      REFERENCE='NON_DEFINI',),
                   _F(NOEUD='N18',
                      NOM_CMP='TEMP',
                      PRECISION=1.E-2,
                      CHAM_GD=TEMP_13,
                      VALE_CALC=128.384501616,
                      VALE_REFE=128.125,
                      REFERENCE='NON_DEFINI',),
                   _F(NOEUD='N27',
                      NOM_CMP='TEMP',
                      PRECISION=1.E-2,
                      CHAM_GD=TEMP_13,
                      VALE_CALC=140.597637175,
                      VALE_REFE=139.97,
                      REFERENCE='NON_DEFINI',),
                   _F(NOEUD='N45',
                      NOM_CMP='TEMP',
                      PRECISION=1.E-2,
                      CHAM_GD=TEMP_13,
                      VALE_CALC=123.620367266,
                      VALE_REFE=124.71899999999999,
                      REFERENCE='NON_DEFINI',),
                   _F(NOEUD='N63',
                      NOM_CMP='TEMP',
                      PRECISION=1.E-2,
                      CHAM_GD=TEMP_13,
                      VALE_CALC=106.789364271,
                      VALE_REFE=107.182,
                      REFERENCE='NON_DEFINI',),
                   _F(NOEUD='N81',
                      NOM_CMP='TEMP',
                      PRECISION=1.E-2,
                      CHAM_GD=TEMP_13,
                      VALE_CALC=101.216648872,
                      VALE_REFE=101.29000000000001,
                      REFERENCE='NON_DEFINI',),
                   _F(NOEUD='N99',
                      NOM_CMP='TEMP',
                      PRECISION=1.E-2,
                      CHAM_GD=TEMP_13,
                      VALE_CALC=100.132016641,
                      VALE_REFE=100.134,
                      REFERENCE='NON_DEFINI',),
                   ),
          )

FIN()
#
