# MODIF  DATE 08/11/2007   AUTEUR SALMONA L.SALMONA 
# TITRE MUR INFINI SOUMIS A UN SAUT DE TEMPERATURE
#            CONFIGURATION MANAGEMENT OF EDF VERSION
# ======================================================================
# COPYRIGHT (C) 1991 - 2001  EDF R&D                  WWW.CODE-ASTER.ORG
# THIS PROGRAM IS FREE SOFTWARE; YOU CAN REDISTRIBUTE IT AND/OR MODIFY
# IT UNDER THE TERMS OF THE GNU GENERAL PUBLIC LICENSE AS PUBLISHED BY
# THE FREE SOFTWARE FOUNDATION; EITHER VERSION 2 OF THE LICENSE, OR   
# (AT YOUR OPTION) ANY LATER VERSION.                                 
#
# THIS PROGRAM IS DISTRIBUTED IN THE HOPE THAT IT WILL BE USEFUL, BUT 
# WITHOUT ANY WARRANTY; WITHOUT EVEN THE IMPLIED WARRANTY OF          
# MERCHANTABILITY OR FITNESS FOR A PARTICULAR PURPOSE. SEE THE GNU    
# GENERAL PUBLIC LICENSE FOR MORE DETAILS.                            
#
# YOU SHOULD HAVE RECEIVED A COPY OF THE GNU GENERAL PUBLIC LICENSE   
# ALONG WITH THIS PROGRAM; IF NOT, WRITE TO EDF R&D CODE_ASTER,       
#    1 AVENUE DU GENERAL DE GAULLE, 92141 CLAMART CEDEX, FRANCE.      
# ======================================================================
#       AVEC PROPRIETES VARIABLES
#
# MAILLES : TRIA6
#

DEBUT(CODE=_F( NOM = 'TTNL303A',NIV_PUB_WEB='INTERNET'))

#
# LECTURE DU MAILLAGE ----------------------------------------------
#

MAIL=LIRE_MAILLAGE( )

#
# DEFINITION DES CHARGEMENTS ET DU MATERIAU ------------------------
#

TGAUCHE=DEFI_FONCTION(    NOM_RESU='TEMP',  NOM_PARA='INST',
                                  VALE=(0.0E0,      200.0E0,
                                       10.0E0,      200.0E0,
                                       10.001E0,    100.0E0,
                                      100.0E0,      100.0E0, )
                           )

TDROITE=DEFI_FONCTION(    NOM_RESU='TEMP',  NOM_PARA='INST',
                                  VALE=(0.0E0,      100.0E0,
                                      100.0E0,      100.0E0, )
                            )

CONDUC=DEFI_FONCTION(    NOM_PARA='TEMP',  NOM_RESU='LAMBDA',
                                 VALE=(    0.0,       2.E2,
                                         500.0,       7.E2, ),
               PROL_DROITE='LINEAIRE',    PROL_GAUCHE='LINEAIRE' )

ENTHAL=DEFI_FONCTION(    NOM_PARA='TEMP',  NOM_RESU='CP',
                                 VALE=(    0.0,      0.0,
                                         500.0,   4000.E6, ),
               PROL_DROITE='LINEAIRE',    PROL_GAUCHE='LINEAIRE' )

MATER=DEFI_MATERIAU( THER_NL=_F(  LAMBDA = CONDUC,
                                    BETA = ENTHAL) )

#
# AFFECTATIONS: MATERIAU, MODELE, CHARGEMENT ----------------------
#


CHMAT=AFFE_MATERIAU(  MAILLAGE=MAIL,
                 AFFE=_F(  TOUT = 'OUI', MATER = MATER) )

MOTH=AFFE_MODELE(  MAILLAGE=MAIL,
                         AFFE=_F( TOUT = 'OUI', MODELISATION = 'PLAN',
                                          PHENOMENE = 'THERMIQUE'))

CHTH=AFFE_CHAR_THER_F(MODELE=MOTH,TEMP_IMPO=(
              _F( GROUP_NO = 'NOE_GAU', TEMP = TGAUCHE),
              _F( GROUP_NO = 'NOE_DRO', TEMP = TDROITE))
              )

#
# DEFINITION DE LA STATEGIE DE CALCUL -----------------------------
#

LR8=DEFI_LIST_REEL(        DEBUT=0.,INTERVALLE=(
                   _F(    JUSQU_A = 1.E-3, NOMBRE = 10),
                   _F(    JUSQU_A = 1.E-2, NOMBRE = 9),
                   _F(    JUSQU_A = 1.E-1, NOMBRE = 9),
                   _F(    JUSQU_A = 1.E0,  NOMBRE = 9),
                   _F(    JUSQU_A = 10.E0,  NOMBRE = 9),
                   _F(    JUSQU_A = 13.E0,  NOMBRE = 3))
                              )

#
# RESOLUTION ------------------------------------------------------
#

TEMPE=THER_NON_LINE(           MODELE=MOTH,
                   ETAT_INIT=_F(    VALE = 100.0),
                    INCREMENT=_F(   LIST_INST = LR8),
                   CHAM_MATER=CHMAT,
                        EXCIT=_F(  CHARGE = CHTH)
                 )

TEMP_10=CREA_CHAMP(  OPERATION='EXTR', TYPE_CHAM='NOEU_TEMP_R',
NOM_CHAM='TEMP', RESULTAT=TEMPE,
             INST=10.0 )

TEMP_13=CREA_CHAMP(  OPERATION='EXTR', TYPE_CHAM='NOEU_TEMP_R',
NOM_CHAM='TEMP', RESULTAT=TEMPE,
             INST=13.0 )

#
# ANALYSE DES RESULTATS -------------------------------------------
#

TEST_RESU(CHAM_NO=(
#    T = 10 SEC
_F( CHAM_GD = TEMP_10, NOEUD = 'N11',  NOM_CMP = 'TEMP', VALE = 176.165, PRECISION = 1.E-2),
_F( CHAM_GD = TEMP_10, NOEUD = 'N21',  NOM_CMP = 'TEMP', VALE = 153.213, PRECISION = 1.E-2),
_F( CHAM_GD = TEMP_10, NOEUD = 'N41',  NOM_CMP = 'TEMP', VALE = 118.600, PRECISION = 1.E-2),
_F( CHAM_GD = TEMP_10, NOEUD = 'N61',  NOM_CMP = 'TEMP', VALE = 103.715, PRECISION = 1.E-2),
_F( CHAM_GD = TEMP_10, NOEUD = 'N81',  NOM_CMP = 'TEMP', VALE = 100.368, PRECISION = 1.E-2),
_F( CHAM_GD = TEMP_10, NOEUD = 'N101', NOM_CMP = 'TEMP', VALE = 100.014, PRECISION = 1.E-2),

_F( CHAM_GD = TEMP_10, NOEUD = 'N13',  NOM_CMP = 'TEMP', VALE = 176.165, PRECISION = 1.E-2),
_F( CHAM_GD = TEMP_10, NOEUD = 'N23',  NOM_CMP = 'TEMP', VALE = 153.213, PRECISION = 1.E-2),
_F( CHAM_GD = TEMP_10, NOEUD = 'N43',  NOM_CMP = 'TEMP', VALE = 118.600, PRECISION = 1.E-2),
_F( CHAM_GD = TEMP_10, NOEUD = 'N63',  NOM_CMP = 'TEMP', VALE = 103.715, PRECISION = 1.E-2),
_F( CHAM_GD = TEMP_10, NOEUD = 'N83',  NOM_CMP = 'TEMP', VALE = 100.368, PRECISION = 1.E-2),
_F( CHAM_GD = TEMP_10, NOEUD = 'N103', NOM_CMP = 'TEMP', VALE = 100.014, PRECISION = 1.E-2),

_F( CHAM_GD = TEMP_10, NOEUD = 'N15',  NOM_CMP = 'TEMP', VALE = 176.165, PRECISION = 1.E-2),
_F( CHAM_GD = TEMP_10, NOEUD = 'N25',  NOM_CMP = 'TEMP', VALE = 153.213, PRECISION = 1.E-2),
_F( CHAM_GD = TEMP_10, NOEUD = 'N45',  NOM_CMP = 'TEMP', VALE = 118.600, PRECISION = 1.E-2),
_F( CHAM_GD = TEMP_10, NOEUD = 'N65',  NOM_CMP = 'TEMP', VALE = 103.715, PRECISION = 1.E-2),
_F( CHAM_GD = TEMP_10, NOEUD = 'N85',  NOM_CMP = 'TEMP', VALE = 100.368, PRECISION = 1.E-2),
_F( CHAM_GD = TEMP_10, NOEUD = 'N105', NOM_CMP = 'TEMP', VALE = 100.014, PRECISION = 1.E-2),

_F( CHAM_GD = TEMP_10, NOEUD = 'N201', NOM_CMP = 'TEMP', VALE = 100.000, PRECISION = 1.E-5),
_F( CHAM_GD = TEMP_10, NOEUD = 'N202', NOM_CMP = 'TEMP', VALE = 100.000, PRECISION = 1.E-5),
_F( CHAM_GD = TEMP_10, NOEUD = 'N203', NOM_CMP = 'TEMP', VALE = 100.000, PRECISION = 1.E-5),
_F( CHAM_GD = TEMP_10, NOEUD = 'N204', NOM_CMP = 'TEMP', VALE = 100.000, PRECISION = 1.E-5),
_F( CHAM_GD = TEMP_10, NOEUD = 'N205', NOM_CMP = 'TEMP', VALE = 100.000, PRECISION = 1.E-5),

#    T = 13 SEC
_F( CHAM_GD = TEMP_13, NOEUD = 'N11',  NOM_CMP = 'TEMP', VALE = 128.125, PRECISION = 1.E-2),
_F( CHAM_GD = TEMP_13, NOEUD = 'N21',  NOM_CMP = 'TEMP', VALE = 139.970, PRECISION = 1.E-2),
_F( CHAM_GD = TEMP_13, NOEUD = 'N41',  NOM_CMP = 'TEMP', VALE = 124.719, PRECISION = 2.E-2),
_F( CHAM_GD = TEMP_13, NOEUD = 'N61',  NOM_CMP = 'TEMP', VALE = 107.182, PRECISION = 1.E-2),
_F( CHAM_GD = TEMP_13, NOEUD = 'N81',  NOM_CMP = 'TEMP', VALE = 101.290, PRECISION = 1.E-2),
_F( CHAM_GD = TEMP_13, NOEUD = 'N101', NOM_CMP = 'TEMP', VALE = 100.134, PRECISION = 1.E-2),

_F( CHAM_GD = TEMP_13, NOEUD = 'N13',  NOM_CMP = 'TEMP', VALE = 128.125, PRECISION = 1.E-2),
_F( CHAM_GD = TEMP_13, NOEUD = 'N23',  NOM_CMP = 'TEMP', VALE = 139.970, PRECISION = 1.E-2),
_F( CHAM_GD = TEMP_13, NOEUD = 'N43',  NOM_CMP = 'TEMP', VALE = 124.719, PRECISION = 2.E-2),
_F( CHAM_GD = TEMP_13, NOEUD = 'N63',  NOM_CMP = 'TEMP', VALE = 107.182, PRECISION = 1.E-2),
_F( CHAM_GD = TEMP_13, NOEUD = 'N83',  NOM_CMP = 'TEMP', VALE = 101.290, PRECISION = 1.E-2),
_F( CHAM_GD = TEMP_13, NOEUD = 'N103', NOM_CMP = 'TEMP', VALE = 100.134, PRECISION = 1.E-2),

_F( CHAM_GD = TEMP_13, NOEUD = 'N15',  NOM_CMP = 'TEMP', VALE = 128.125, PRECISION = 1.E-2),
_F( CHAM_GD = TEMP_13, NOEUD = 'N25',  NOM_CMP = 'TEMP', VALE = 139.970, PRECISION = 1.E-2),
_F( CHAM_GD = TEMP_13, NOEUD = 'N45',  NOM_CMP = 'TEMP', VALE = 124.719, PRECISION = 2.E-2),
_F( CHAM_GD = TEMP_13, NOEUD = 'N65',  NOM_CMP = 'TEMP', VALE = 107.182, PRECISION = 1.E-2),
_F( CHAM_GD = TEMP_13, NOEUD = 'N85',  NOM_CMP = 'TEMP', VALE = 101.290, PRECISION = 1.E-2),
_F( CHAM_GD = TEMP_13, NOEUD = 'N105', NOM_CMP = 'TEMP', VALE = 100.134, PRECISION = 1.E-2))
    )

FIN()
#
