# TITRE THERMO-HYDRATATION EN ADIABATIQUE 3D - HEXA8
# ======================================================================
# COPYRIGHT (C) 1991 - 2012  EDF R&D                  WWW.CODE-ASTER.ORG
# THIS PROGRAM IS FREE SOFTWARE; YOU CAN REDISTRIBUTE IT AND/OR MODIFY
# IT UNDER THE TERMS OF THE GNU GENERAL PUBLIC LICENSE AS PUBLISHED BY
# THE FREE SOFTWARE FOUNDATION; EITHER VERSION 2 OF THE LICENSE, OR
# (AT YOUR OPTION) ANY LATER VERSION.
#
# THIS PROGRAM IS DISTRIBUTED IN THE HOPE THAT IT WILL BE USEFUL, BUT
# WITHOUT ANY WARRANTY; WITHOUT EVEN THE IMPLIED WARRANTY OF
# MERCHANTABILITY OR FITNESS FOR A PARTICULAR PURPOSE. SEE THE GNU
# GENERAL PUBLIC LICENSE FOR MORE DETAILS.
#
# YOU SHOULD HAVE RECEIVED A COPY OF THE GNU GENERAL PUBLIC LICENSE
# ALONG WITH THIS PROGRAM; IF NOT, WRITE TO EDF R&D CODE_ASTER,
#    1 AVENUE DU GENERAL DE GAULLE, 92141 CLAMART CEDEX, FRANCE.
# ======================================================================

DEBUT(CODE=_F(
              NIV_PUB_WEB='INTERNET',),
      DEBUG=_F(SDVERI='OUI',),);

MAIL=LIRE_MAILLAGE(FORMAT='MED',
                   INFO=2,);

MAIL2=CREA_MAILLAGE(MAILLAGE=MAIL,
                    LINE_QUAD=_F(TOUT='OUI',),
                    INFO=2,);

MAIL2=DEFI_GROUP(reuse =MAIL2,
                 MAILLAGE=MAIL2,
                 CREA_GROUP_NO=_F(OPTION='PLAN',
                                  NOM='faceinf2',
                                  POINT=(0.0,0.0,0.0,),
                                  VECT_NORMALE=(0.0,0.0,-1.0,),
                                  PRECISION=1e-7,),);

MODTHER=AFFE_MODELE(MAILLAGE=MAIL2,
                    AFFE=_F(TOUT='OUI',
                            PHENOMENE='THERMIQUE',
                            MODELISATION='3D',),);

#
# DEFINITION DE L'AFFINITE FONCTION DU DEGRE D'HYDRATATION

Ar = 4000;

TZ0 = 273.15;


AA0=DEFI_FONCTION(NOM_PARA='HYDR',VALE=(0.,6510.,
                        0.008,6360.,
                        0.016,2485.,
                        0.019,2460.,
                        0.022,2440.,
                        0.0258,6050.,
                        0.038,9520.,
                        0.047,21800.,
                        0.08,37600.,
                        0.138,51600.,
                        0.232,51400.,
                        0.351,28200.,
                        0.44,16100.,
                        0.50,11700.,
                        0.55,7530.,
                        0.594,6320.,
                        0.63,5570.,
                        0.66,5160.,
                        0.697,4790.,
                        0.73,4240.,
                        0.76,3370.,
# ... 15 like lines cut
                        ),PROL_DROITE='CONSTANT',PROL_GAUCHE='EXCLU',);
AA = FORMULE(VALE='exp(-Ar/(TZ0+TEMP))*(AA0(HYDR))',
             NOM_PARA=('HYDR','TEMP',),);

LL=DEFI_LIST_REEL(VALE=(0.,
                        0.008,
                        0.016,
                        0.019,
                        0.022,
                        0.0258,
                        0.038,
                        0.047,
                        0.08,
                        0.138,
                        0.232,
                        0.351,
                        0.44,
                        0.50,
                        0.55,
                        0.594,
                        0.63,
                        0.66,
                        0.697,
                        0.73,
                        0.76,
# ... 15 like lines cut
                        ),);

LT=DEFI_LIST_REEL(DEBUT=0.0,
                  INTERVALLE=_F(JUSQU_A=100.0,
                                PAS=0.1,),);

AFF=CALC_FONC_INTERP(FONCTION=AA,
                     LIST_PARA=LL,
                     NOM_RESU='AFF',
                     NOM_PARA='HYDR',
                     PROL_DROITE='CONSTANT',
                     PROL_GAUCHE='EXCLU',
                     NOM_PARA_FONC='TEMP',
                     LIST_PARA_FONC=LT,
                     PROL_DROITE_FONC='LINEAIRE',
                     PROL_GAUCHE_FONC='LINEAIRE',
                     );

#
#CONDUCTION EN KJ/H/M/K

COND=DEFI_FONCTION(NOM_PARA='TEMP',VALE=(0.,6.,
                         300.,6.,
                         ),PROL_DROITE='LINEAIRE',PROL_GAUCHE='LINEAIRE',);

#
# ENTHALPIE EN KJ/H/M

ENTH=DEFI_FONCTION(NOM_PARA='TEMP',VALE=(0.,6.55E05,
                         20.,7.03E05,
                         50.,7.75E05,
                         70.,8.23E05,
                         ),PROL_DROITE='LINEAIRE',PROL_GAUCHE='LINEAIRE',);

#
# CONSTANTE D'ARRHENIUS EN DEGRE KELVIN

MATHYDR=DEFI_MATERIAU(THER_HYDR=_F(LAMBDA=COND,
                                   BETA=ENTH,
                                   AFFINITE=AFF,
                                   CHALHYDR=1.4904E05,),);

CHMATNL=AFFE_MATERIAU(MAILLAGE=MAIL2,
                      AFFE=_F(TOUT='OUI',
                              MATER=MATHYDR,),);

#
# CHARGEMENT
# ----------
TEMPEXT = 50.0;

TEMPINI = 20.9;


#COEFF D'ECHANGE EN KJ/H/M**2/K NUL EN ADIABATIQUE
COEFH = 0.0;


CHATHER=AFFE_CHAR_THER(MODELE=MODTHER,
                       ECHANGE=_F(GROUP_MA='FACEINF',
                                  COEF_H=COEFH,
                                  TEMP_EXT=TEMPEXT,),);

#
#
# =====================================================================
#                            LISTE D'INSTANTS
# =====================================================================

LINST=DEFI_LIST_REEL(DEBUT=0.0,
                     INTERVALLE=(_F(JUSQU_A=5.,
                                    NOMBRE=40,),
                                 _F(JUSQU_A=15.,
                                    NOMBRE=80,),
                                 _F(JUSQU_A=20.,
                                    NOMBRE=40,),
                                 _F(JUSQU_A=60.,
                                    NOMBRE=40,),),);

#
# =====================================================================
#   CALCUL TRANSITOIRE THERMO-HYDRATANT
# =====================================================================

TEMPINIT=CREA_CHAMP(TYPE_CHAM='NOEU_TEMP_R',
                    OPERATION='AFFE',
                    MAILLAGE=MAIL2,
                    AFFE=_F(TOUT='OUI',
                            NOM_CMP='TEMP',
                            VALE=TEMPINI,),);

#

RESUTHYD=THER_NON_LINE(MODELE=MODTHER,
                       CHAM_MATER=CHMATNL,
                       COMPORTEMENT=_F(RELATION='THER_HYDR',),
                       EXCIT=_F(CHARGE=CHATHER,),
                       INCREMENT=_F(LIST_INST=LINST,),
                       ETAT_INIT=_F(CHAM_NO=TEMPINIT,),
                       CONVERGENCE=_F(RESI_GLOB_MAXI=1.E-5,),
                       PARM_THETA=0.57,);
##IMPR_RESU(
##FORMAT='MED',
##UNITE=81,
##
##RESU=_F(RESULTAT=RESUTHYD,),
##);
##############################


# TESTS DES RESULTATS
##############################


# VALIDATION
# VALEURS DE REFENCE DU CAS TEST: C.F. DOC DU CAS TEST TTNL03A

T05=CREA_CHAMP(TYPE_CHAM='NOEU_TEMP_R',
               OPERATION='EXTR',
               RESULTAT=RESUTHYD,
               NOM_CHAM='TEMP',
               NUME_ORDRE=40,);

T15=CREA_CHAMP(TYPE_CHAM='NOEU_TEMP_R',
               OPERATION='EXTR',
               RESULTAT=RESUTHYD,
               NOM_CHAM='TEMP',
               NUME_ORDRE=120,);

T60=CREA_CHAMP(TYPE_CHAM='NOEU_TEMP_R',
               OPERATION='EXTR',
               RESULTAT=RESUTHYD,
               NOM_CHAM='TEMP',
               NUME_ORDRE=200,);

TEST_RESU(CHAM_NO=(_F(REFERENCE='SOURCE_EXTERNE',
                      NOM_CMP='TEMP',
                      GROUP_NO='A',
                      PRECISION=1.E-2,
                      CHAM_GD=T05,
                      VALE_CALC=22.456743277,
                      VALE_REFE=22.5,),
                   _F(REFERENCE='SOURCE_EXTERNE',
                      NOM_CMP='TEMP',
                      GROUP_NO='A',
                      PRECISION=0.02,
                      CHAM_GD=T15,
                      VALE_CALC=58.347956241,
                      VALE_REFE=57.799999999999997,),
                   _F(REFERENCE='SOURCE_EXTERNE',
                      NOM_CMP='TEMP',
                      GROUP_NO='A',
                      PRECISION=0.040000000000000001,
                      CHAM_GD=T60,
                      VALE_CALC=78.842395654,
                      VALE_REFE=79.099999999999994,),
                   ),
          )

TEST_RESU(CHAM_NO=(_F(
                      NOM_CMP='TEMP',
                      GROUP_NO='A',
                      CHAM_GD=T05,
                      VALE_CALC=22.45674327733958,),
                   _F(
                      NOM_CMP='TEMP',
                      GROUP_NO='A',
                      CHAM_GD=T15,
                      VALE_CALC=58.347956240546438,),
                   _F(
                      NOM_CMP='TEMP',
                      GROUP_NO='A',
                      CHAM_GD=T60,
                      VALE_CALC=78.842395653905939,),
                   ),
          )

# TESTS DE HYDR_ELNO ET HYDR_NOEU

RESUTHYD=CALC_CHAMP(reuse =RESUTHYD,
                    RESULTAT=RESUTHYD,
                    THERMIQUE='HYDR_NOEU',);

HYDRELNO=CREA_CHAMP(TYPE_CHAM='ELNO_HYDR_R',
                    OPERATION='EXTR',
                    RESULTAT=RESUTHYD,
                    NOM_CHAM='HYDR_ELNO',
                    NUME_ORDRE=120,);

HYDRNOEU=CREA_CHAMP(TYPE_CHAM='NOEU_HYDR_R',
                    OPERATION='EXTR',
                    RESULTAT=RESUTHYD,
                    NOM_CHAM='HYDR_NOEU',
                    NUME_ORDRE=120,);

TEST_RESU(CHAM_ELEM=_F(REFERENCE='SOURCE_EXTERNE',
                       POINT=1,
                       NOM_CMP='HYDR',
                       PRECISION=0.02,
                       MAILLE='M143',
                       CHAM_GD=HYDRELNO,
                       VALE_CALC=0.603026672,
                       VALE_REFE=0.59399999999999997,),
          )

TEST_RESU(CHAM_NO=_F(REFERENCE='SOURCE_EXTERNE',
                     NOM_CMP='HYDR',
                     GROUP_NO='A',
                     PRECISION=0.02,
                     CHAM_GD=HYDRNOEU,
                     VALE_CALC=0.603026672,
                     VALE_REFE=0.59399999999999997,),
          )

TEST_RESU(CHAM_NO=_F(
                     NOM_CMP='HYDR',
                     GROUP_NO='A',
                     CHAM_GD=HYDRNOEU,
                     VALE_CALC=0.60302667212811367,),
          )

###################
# CALCUL MECANIQUE
###################


#
# DONNEES DE MODELISATION

MOMECA=AFFE_MODELE(MAILLAGE=MAIL2,
                   AFFE=_F(TOUT='OUI',
                           PHENOMENE='MECANIQUE',
                           MODELISATION='3D',),);

FCT1=DEFI_FONCTION(NOM_PARA='EPSI',VALE=(0.200E-2,400.,
                         0.400E-2,500.,
                         ),PROL_DROITE='LINEAIRE',PROL_GAUCHE='LINEAIRE',);

#

FCT2=DEFI_FONCTION(NOM_PARA='EPSI',VALE=(0.100E-2,200.,
                         0.300E-2,300.,
                         ),PROL_DROITE='LINEAIRE',PROL_GAUCHE='LINEAIRE',);

#

E=DEFI_FONCTION(NOM_PARA='HYDR',VALE=(0.0,32.E+3,
                      1000.0,32.E+3,
                      ),PROL_DROITE='CONSTANT',PROL_GAUCHE='CONSTANT',);

#

NU=DEFI_FONCTION(NOM_PARA='HYDR',VALE=(0.0,0.3E0,
                       1000.0,0.3E0,
                       ),PROL_DROITE='CONSTANT',PROL_GAUCHE='CONSTANT',);

#

ALPHA=DEFI_FONCTION(NOM_PARA='TEMP',VALE=(0.0,10.0E-6,
                          1000.0,10.0E-6,
                          ),PROL_DROITE='CONSTANT',PROL_GAUCHE='CONSTANT',);

#

CTRACB=DEFI_NAPPE(NOM_PARA='HYDR',
                  PARA=(0.,50.,),
                  FONCTION=(FCT1,FCT2,),
                  PROL_DROITE='LINEAIRE',
                  PROL_GAUCHE='LINEAIRE',);

#

RHOF=DEFI_CONSTANTE(VALE = 2400.,)
MAT=DEFI_MATERIAU(ELAS_FO=_F(E=E,
                             NU=NU,
                             RHO=RHOF,
                             TEMP_DEF_ALPHA=0.0E-3,
                             ALPHA=ALPHA,
                             B_ENDOGE=0.0015,),
                  TRACTION=_F(SIGM=CTRACB,),
                  THER=_F(LAMBDA=1.0E-3,
                          RHO_CP=0.0E-3,),);

#

CM=AFFE_MATERIAU(MAILLAGE=MAIL2,
                 AFFE=_F(TOUT='OUI',
                         MATER=MAT,),
                 AFFE_VARC=(_F(NOM_VARC='HYDR',
                               EVOL=RESUTHYD,),
                            _F(NOM_VARC='TEMP',
                               EVOL=RESUTHYD,
                               VALE_REF=20.9,),),);

CHMECA=AFFE_CHAR_MECA(MODELE=MOMECA,
                      DDL_IMPO=(_F(GROUP_NO='faceinf2',
                                   DZ=0.,),
                                _F(GROUP_NO='A',
                                   DX=0.,
                                   DY=0.,),
                                _F(GROUP_NO='B',
                                   DX=0.,
                                   DY=0.,),),);

#

LISTMECA=DEFI_LIST_REEL(DEBUT=0.0,
                        INTERVALLE=(_F(JUSQU_A=1.,
                                       NOMBRE=1,),
                                    _F(JUSQU_A=5.,
                                       NOMBRE=5,),
                                    _F(JUSQU_A=15.,
                                       NOMBRE=5,),
                                    _F(JUSQU_A=20.,
                                       NOMBRE=5,),
                                    _F(JUSQU_A=60.,
                                       NOMBRE=5,),),);

#

RESUMECA=STAT_NON_LINE(MODELE=MOMECA,
                       CHAM_MATER=CM,
                       EXCIT=_F(CHARGE=CHMECA,),
                       COMPORTEMENT=_F(RELATION='VMIS_ISOT_TRAC',),
                       INCREMENT=_F(LIST_INST=LISTMECA,),
                       NEWTON=_F(MATRICE='TANGENTE',),
                       CONVERGENCE=_F(ITER_GLOB_MAXI=40,),
                       SOLVEUR=_F(METHODE='LDLT',
                                  ),);

#

TEST_RESU(RESU=_F(NUME_ORDRE=20,
                  GROUP_NO='PSUP',
                  RESULTAT=RESUMECA,
                  NOM_CHAM='DEPL',
                  NOM_CMP='DZ',
                  VALE_CALC=-7.7897715686389007E-4,
                  ),
          )

#

RESUSTAT=MECA_STATIQUE(MODELE=MOMECA,
                       CHAM_MATER=CM,
                       EXCIT=_F(CHARGE=CHMECA,),
                       LIST_INST=LISTMECA,
                       SOLVEUR=_F(METHODE='LDLT',
                                  ),);

#

TEST_RESU(RESU=_F(NUME_ORDRE=21,
                  GROUP_NO='PSUP',
                  RESULTAT=RESUSTAT,
                  NOM_CHAM='DEPL',
                  NOM_CMP='DZ',
                  VALE_CALC=-7.7897715686388541E-4,
                  ),
          )

FIN();

#
