# MODIF  DATE 17/01/2012   AUTEUR SELLENET N.SELLENET 
# TITRE MUR INFINI SOUMIS A UN SAUT DE TEMPERATURE
#            CONFIGURATION MANAGEMENT OF EDF VERSION
# ======================================================================
# COPYRIGHT (C) 1991 - 2012  EDF R&D                  WWW.CODE-ASTER.ORG
# THIS PROGRAM IS FREE SOFTWARE; YOU CAN REDISTRIBUTE IT AND/OR MODIFY
# IT UNDER THE TERMS OF THE GNU GENERAL PUBLIC LICENSE AS PUBLISHED BY
# THE FREE SOFTWARE FOUNDATION; EITHER VERSION 2 OF THE LICENSE, OR   
# (AT YOUR OPTION) ANY LATER VERSION.                                 
#
# THIS PROGRAM IS DISTRIBUTED IN THE HOPE THAT IT WILL BE USEFUL, BUT 
# WITHOUT ANY WARRANTY; WITHOUT EVEN THE IMPLIED WARRANTY OF          
# MERCHANTABILITY OR FITNESS FOR A PARTICULAR PURPOSE. SEE THE GNU    
# GENERAL PUBLIC LICENSE FOR MORE DETAILS.                            
#
# YOU SHOULD HAVE RECEIVED A COPY OF THE GNU GENERAL PUBLIC LICENSE   
# ALONG WITH THIS PROGRAM; IF NOT, WRITE TO EDF R&D CODE_ASTER,       
#    1 AVENUE DU GENERAL DE GAULLE, 92141 CLAMART CEDEX, FRANCE.      
# ======================================================================
#       AVEC PROPRIETES VARIABLES
# MAILLES : HEXA8
#

DEBUT(CODE=_F( NOM = 'TTNL303C',NIV_PUB_WEB='INTERNET'))

#
# LECTURE DU MAILLAGE ----------------------------------------------
#

MAIL=LIRE_MAILLAGE(FORMAT='MED', )

#
# DEFINITION DES CHARGEMENTS ET DU MATERIAU ------------------------
#

TGAUCHE=DEFI_FONCTION(    NOM_RESU='TEMP',  NOM_PARA='INST',
                                  VALE=(0.0E0,      200.0E0,
                                       10.0E0,      200.0E0,
                                       10.001E0,    100.0E0,
                                      100.0E0,      100.0E0, )
                           )

TDROITE=DEFI_FONCTION(    NOM_RESU='TEMP',  NOM_PARA='INST',
                                  VALE=(0.0E0,      100.0E0,
                                      100.0E0,      100.0E0, )
                            )

CONDUC=DEFI_FONCTION(    NOM_PARA='TEMP',  NOM_RESU='LAMBDA',
                                 VALE=(    0.0,       2.E2,
                                         500.0,       7.E2, ),
               PROL_DROITE='LINEAIRE',    PROL_GAUCHE='LINEAIRE' )

ENTHAL=DEFI_FONCTION(    NOM_PARA='TEMP',  NOM_RESU='CP',
                                 VALE=(    0.0,      0.0,
                                         500.0,   4000.E6, ),
               PROL_DROITE='LINEAIRE',    PROL_GAUCHE='LINEAIRE' )

MATER=DEFI_MATERIAU( THER_NL=_F(  LAMBDA = CONDUC,
                                    BETA = ENTHAL) )

#
# AFFECTATIONS: MATERIAU, MODELE, CHARGEMENT ----------------------
#


CHMAT=AFFE_MATERIAU(  MAILLAGE=MAIL,
                 AFFE=_F(  TOUT = 'OUI', MATER = MATER) )

MOTH=AFFE_MODELE(  MAILLAGE=MAIL,
                         AFFE=_F( TOUT = 'OUI', MODELISATION = '3D',
                                          PHENOMENE = 'THERMIQUE'))

CHTH=AFFE_CHAR_THER_F(MODELE=MOTH,TEMP_IMPO=(
              _F( GROUP_NO = 'NOE_GAU', TEMP = TGAUCHE),
              _F( GROUP_NO = 'NOE_DRO', TEMP = TDROITE))
              )

#
# DEFINITION DE LA STATEGIE DE CALCUL -----------------------------
#

LR8=DEFI_LIST_REEL(        DEBUT=0.,INTERVALLE=(
                   _F(    JUSQU_A = 1.E-3, NOMBRE = 10),
                   _F(    JUSQU_A = 1.E-2, NOMBRE = 9),
                   _F(    JUSQU_A = 1.E-1, NOMBRE = 9),
                   _F(    JUSQU_A = 1.E0,  NOMBRE = 9),
                   _F(    JUSQU_A = 10.E0,  NOMBRE = 9),
                   _F(    JUSQU_A = 13.E0,  NOMBRE = 3))
                              )

#
# RESOLUTION ------------------------------------------------------
#

TEMPE=THER_NON_LINE(           MODELE=MOTH,
                   ETAT_INIT=_F(    VALE = 100.0),
                    INCREMENT=_F(   LIST_INST = LR8),
                   CHAM_MATER=CHMAT,
                        EXCIT=_F(  CHARGE = CHTH)
                 )

TEMP_10=CREA_CHAMP(  OPERATION='EXTR', TYPE_CHAM='NOEU_TEMP_R',
NOM_CHAM='TEMP', RESULTAT=TEMPE,
             INST=10.0 )

TEMP_13=CREA_CHAMP(  OPERATION='EXTR', TYPE_CHAM='NOEU_TEMP_R',
NOM_CHAM='TEMP', RESULTAT=TEMPE,
             INST=13.0 )

#
# ANALYSE DES RESULTATS -------------------------------------------
#

TEST_RESU(CHAM_NO=(
#
#    T = 10 SEC
#
# ------ X = 0.01: ECART RELATIF
#
_F( CHAM_GD = TEMP_10, NOEUD = 'N80', NOM_CMP = 'TEMP', VALE = 176.165, PRECISION = 1.E-2),
_F( CHAM_GD = TEMP_10, NOEUD = 'N64', NOM_CMP = 'TEMP', VALE = 176.165, PRECISION = 1.E-2),
_F( CHAM_GD = TEMP_10, NOEUD = 'N26', NOM_CMP = 'TEMP', VALE = 176.165, PRECISION = 1.E-2),
_F( CHAM_GD = TEMP_10, NOEUD = 'N17', NOM_CMP = 'TEMP', VALE = 176.165, PRECISION = 1.E-2),
#
# ------ X= 0.01: ECART ABSOLU
#
_F( CHAM_GD = TEMP_10, NOEUD = 'N80', NOM_CMP = 'TEMP',      CRITERE = 'ABSOLU',
                          VALE = 176.165,   PRECISION = 1.E0),
_F( CHAM_GD = TEMP_10, NOEUD = 'N64', NOM_CMP = 'TEMP',      CRITERE = 'ABSOLU',
                          VALE = 176.165,   PRECISION = 1.E0),
_F( CHAM_GD = TEMP_10, NOEUD = 'N26', NOM_CMP = 'TEMP',      CRITERE = 'ABSOLU',
                          VALE = 176.165,   PRECISION = 1.E0),
_F( CHAM_GD = TEMP_10, NOEUD = 'N17', NOM_CMP = 'TEMP',      CRITERE = 'ABSOLU',
                          VALE = 176.165,   PRECISION = 1.E0),
#
# ------ X= 0.02: ECART RELATIF
#
_F( CHAM_GD = TEMP_10, NOEUD = 'N112', NOM_CMP = 'TEMP', VALE = 153.213, PRECISION = 1.E-2),
_F( CHAM_GD = TEMP_10, NOEUD = 'N91',  NOM_CMP = 'TEMP', VALE = 153.213, PRECISION = 1.E-2),
_F( CHAM_GD = TEMP_10, NOEUD = 'N58',  NOM_CMP = 'TEMP', VALE = 153.213, PRECISION = 1.E-2),
_F( CHAM_GD = TEMP_10, NOEUD = 'N36',  NOM_CMP = 'TEMP', VALE = 153.213, PRECISION = 1.E-2),
#
# ------ X= 0.02: ECART ABSOLU
#
_F( CHAM_GD = TEMP_10, NOEUD = 'N112', NOM_CMP = 'TEMP',      CRITERE = 'ABSOLU',
                           VALE = 153.213,   PRECISION = 1.E0),
_F( CHAM_GD = TEMP_10, NOEUD = 'N91',  NOM_CMP = 'TEMP',      CRITERE = 'ABSOLU',
                           VALE = 153.213,   PRECISION = 1.E0),
_F( CHAM_GD = TEMP_10, NOEUD = 'N58',  NOM_CMP = 'TEMP',      CRITERE = 'ABSOLU',
                           VALE = 153.213,   PRECISION = 1.E0),
_F( CHAM_GD = TEMP_10, NOEUD = 'N36',  NOM_CMP = 'TEMP',      CRITERE = 'ABSOLU',
                           VALE = 153.213,   PRECISION = 1.E0),
#
# ------ X= 0.04: ECART RELATIF
#
_F( CHAM_GD = TEMP_10, NOEUD = 'N160', NOM_CMP = 'TEMP', VALE = 118.600, PRECISION = 1.E-2),
_F( CHAM_GD = TEMP_10, NOEUD = 'N149', NOM_CMP = 'TEMP', VALE = 118.600, PRECISION = 1.E-2),
_F( CHAM_GD = TEMP_10, NOEUD = 'N141', NOM_CMP = 'TEMP', VALE = 118.600, PRECISION = 1.E-2),
_F( CHAM_GD = TEMP_10, NOEUD = 'N122', NOM_CMP = 'TEMP', VALE = 118.600, PRECISION = 1.E-2),
#
# ------ X= 0.04: ECART ABSOLU
#
_F( CHAM_GD = TEMP_10, NOEUD = 'N160', NOM_CMP = 'TEMP',      CRITERE = 'ABSOLU',
                           VALE = 118.600,   PRECISION = 1.E0),
_F( CHAM_GD = TEMP_10, NOEUD = 'N149', NOM_CMP = 'TEMP',      CRITERE = 'ABSOLU',
                           VALE = 118.600,   PRECISION = 1.E0),
_F( CHAM_GD = TEMP_10, NOEUD = 'N141', NOM_CMP = 'TEMP',      CRITERE = 'ABSOLU',
                           VALE = 118.600,   PRECISION = 1.E0),
_F( CHAM_GD = TEMP_10, NOEUD = 'N122', NOM_CMP = 'TEMP',      CRITERE = 'ABSOLU',
                           VALE = 118.600,   PRECISION = 1.E0),
#
# ------ X= 0.06: ECART RELATIF
#
_F( CHAM_GD = TEMP_10, NOEUD = 'N224', NOM_CMP = 'TEMP', VALE = 103.715, PRECISION = 1.E-2),
_F( CHAM_GD = TEMP_10, NOEUD = 'N213', NOM_CMP = 'TEMP', VALE = 103.715, PRECISION = 1.E-2),
_F( CHAM_GD = TEMP_10, NOEUD = 'N204', NOM_CMP = 'TEMP', VALE = 103.715, PRECISION = 1.E-2),
_F( CHAM_GD = TEMP_10, NOEUD = 'N193', NOM_CMP = 'TEMP', VALE = 103.715, PRECISION = 1.E-2),
#
# ------ X= 0.06: ECART ABSOLU
#
_F( CHAM_GD = TEMP_10, NOEUD = 'N224', NOM_CMP = 'TEMP',      CRITERE = 'ABSOLU',
                           VALE = 103.715,   PRECISION = 1.E0),
_F( CHAM_GD = TEMP_10, NOEUD = 'N213', NOM_CMP = 'TEMP',      CRITERE = 'ABSOLU',
                           VALE = 103.715,   PRECISION = 1.E0),
_F( CHAM_GD = TEMP_10, NOEUD = 'N204', NOM_CMP = 'TEMP',      CRITERE = 'ABSOLU',
                           VALE = 103.715,   PRECISION = 1.E0),
_F( CHAM_GD = TEMP_10, NOEUD = 'N193', NOM_CMP = 'TEMP',      CRITERE = 'ABSOLU',
                           VALE = 103.715,   PRECISION = 1.E0),
                          #
# ------ X= 0.08: ECART RELATIF
#
_F( CHAM_GD = TEMP_10, NOEUD = 'N288', NOM_CMP = 'TEMP', VALE = 100.368, PRECISION = 1.E-2),
_F( CHAM_GD = TEMP_10, NOEUD = 'N277', NOM_CMP = 'TEMP', VALE = 100.368, PRECISION = 1.E-2),
_F( CHAM_GD = TEMP_10, NOEUD = 'N268', NOM_CMP = 'TEMP', VALE = 100.368, PRECISION = 1.E-2),
_F( CHAM_GD = TEMP_10, NOEUD = 'N257', NOM_CMP = 'TEMP', VALE = 100.368, PRECISION = 1.E-2),
#
# ------ X= 0.08: ECART ABSOLU
#
_F( CHAM_GD = TEMP_10, NOEUD = 'N288', NOM_CMP = 'TEMP',      CRITERE = 'ABSOLU',
                           VALE = 100.368,   PRECISION = 1.E0),
_F( CHAM_GD = TEMP_10, NOEUD = 'N277', NOM_CMP = 'TEMP',      CRITERE = 'ABSOLU',
                           VALE = 100.368,   PRECISION = 1.E0),
_F( CHAM_GD = TEMP_10, NOEUD = 'N268', NOM_CMP = 'TEMP',      CRITERE = 'ABSOLU',
                           VALE = 100.368,   PRECISION = 1.E0),
_F( CHAM_GD = TEMP_10, NOEUD = 'N257', NOM_CMP = 'TEMP',      CRITERE = 'ABSOLU',
                           VALE = 100.368,   PRECISION = 1.E0),
#
# ------ X= 0.10: ECART RELATIF
#
_F( CHAM_GD = TEMP_10, NOEUD = 'N352', NOM_CMP = 'TEMP', VALE = 100.014, PRECISION = 1.E-2),
_F( CHAM_GD = TEMP_10, NOEUD = 'N341', NOM_CMP = 'TEMP', VALE = 100.014, PRECISION = 1.E-2),
_F( CHAM_GD = TEMP_10, NOEUD = 'N332', NOM_CMP = 'TEMP', VALE = 100.014, PRECISION = 1.E-2),
_F( CHAM_GD = TEMP_10, NOEUD = 'N321', NOM_CMP = 'TEMP', VALE = 100.014, PRECISION = 1.E-2),
#
# ------ X= 0.10: ECART ABSOLU
#
_F( CHAM_GD = TEMP_10, NOEUD = 'N352', NOM_CMP = 'TEMP',      CRITERE = 'ABSOLU',
                           VALE = 100.014,   PRECISION = 1.E0),
_F( CHAM_GD = TEMP_10, NOEUD = 'N341', NOM_CMP = 'TEMP',      CRITERE = 'ABSOLU',
                           VALE = 100.014,   PRECISION = 1.E0),
_F( CHAM_GD = TEMP_10, NOEUD = 'N332', NOM_CMP = 'TEMP',      CRITERE = 'ABSOLU',
                           VALE = 100.014,   PRECISION = 1.E0),
_F( CHAM_GD = TEMP_10, NOEUD = 'N321', NOM_CMP = 'TEMP',      CRITERE = 'ABSOLU',
                           VALE = 100.014,   PRECISION = 1.E0),
#
#    T = 1 SEC
#
# ------ X= 0.01: ECART RELATIF
#
_F( CHAM_GD = TEMP_13, NOEUD = 'N80', NOM_CMP = 'TEMP', VALE = 128.125, PRECISION = 1.E-2),
_F( CHAM_GD = TEMP_13, NOEUD = 'N64', NOM_CMP = 'TEMP', VALE = 128.125, PRECISION = 1.E-2),
_F( CHAM_GD = TEMP_13, NOEUD = 'N26', NOM_CMP = 'TEMP', VALE = 128.125, PRECISION = 1.E-2),
_F( CHAM_GD = TEMP_13, NOEUD = 'N17', NOM_CMP = 'TEMP', VALE = 128.125, PRECISION = 1.E-2),
#
# ------ X= 0.01: ECART ABSOLU
#
_F( CHAM_GD = TEMP_13, NOEUD = 'N80', NOM_CMP = 'TEMP',      CRITERE = 'ABSOLU',
                          VALE = 128.125,   PRECISION = 1.E0),
_F( CHAM_GD = TEMP_13, NOEUD = 'N64', NOM_CMP = 'TEMP',      CRITERE = 'ABSOLU',
                          VALE = 128.125,   PRECISION = 1.E0),
_F( CHAM_GD = TEMP_13, NOEUD = 'N26', NOM_CMP = 'TEMP',      CRITERE = 'ABSOLU',
                          VALE = 128.125,   PRECISION = 1.E0),
_F( CHAM_GD = TEMP_13, NOEUD = 'N17', NOM_CMP = 'TEMP',      CRITERE = 'ABSOLU',
                          VALE = 128.125,   PRECISION = 1.E0),
#
# ------ X= 0.02: ECART RELATIF
#
_F( CHAM_GD = TEMP_13, NOEUD = 'N112', NOM_CMP = 'TEMP', VALE = 139.970, PRECISION = 1.E-2),
_F( CHAM_GD = TEMP_13, NOEUD = 'N91',  NOM_CMP = 'TEMP', VALE = 139.970, PRECISION = 1.E-2),
_F( CHAM_GD = TEMP_13, NOEUD = 'N58',  NOM_CMP = 'TEMP', VALE = 139.970, PRECISION = 1.E-2),
_F( CHAM_GD = TEMP_13, NOEUD = 'N36',  NOM_CMP = 'TEMP', VALE = 139.970, PRECISION = 1.E-2),
#
# ------ X= 0.02: ECART ABSOLU
#
_F( CHAM_GD = TEMP_13, NOEUD = 'N112', NOM_CMP = 'TEMP',      CRITERE = 'ABSOLU',
                           VALE = 139.970,   PRECISION = 1.E0),
_F( CHAM_GD = TEMP_13, NOEUD = 'N91',  NOM_CMP = 'TEMP',      CRITERE = 'ABSOLU',
                           VALE = 139.970,   PRECISION = 1.E0),
_F( CHAM_GD = TEMP_13, NOEUD = 'N58',  NOM_CMP = 'TEMP',      CRITERE = 'ABSOLU',
                           VALE = 139.970,   PRECISION = 1.E0),
_F( CHAM_GD = TEMP_13, NOEUD = 'N36',  NOM_CMP = 'TEMP',      CRITERE = 'ABSOLU',
                             VALE = 139.970,   PRECISION = 1.E0),
#
# ------ X= 0.04: ECART RELATIF
#
_F( CHAM_GD = TEMP_13, NOEUD = 'N160', NOM_CMP = 'TEMP', VALE = 124.719, PRECISION = 1.E-2),
_F( CHAM_GD = TEMP_13, NOEUD = 'N149', NOM_CMP = 'TEMP', VALE = 124.719, PRECISION = 1.E-2),
_F( CHAM_GD = TEMP_13, NOEUD = 'N141', NOM_CMP = 'TEMP', VALE = 124.719, PRECISION = 1.E-2),
_F( CHAM_GD = TEMP_13, NOEUD = 'N122', NOM_CMP = 'TEMP', VALE = 124.719, PRECISION = 1.E-2),
#
# ------ X= 0.04: ECART ABSOLU
#
_F( CHAM_GD = TEMP_13, NOEUD = 'N160', NOM_CMP = 'TEMP',      CRITERE = 'ABSOLU',
                           VALE = 124.719,   PRECISION = 1.E0),
_F( CHAM_GD = TEMP_13, NOEUD = 'N149', NOM_CMP = 'TEMP',      CRITERE = 'ABSOLU',
                           VALE = 124.719,   PRECISION = 1.E0),
_F( CHAM_GD = TEMP_13, NOEUD = 'N141', NOM_CMP = 'TEMP',      CRITERE = 'ABSOLU',
                           VALE = 124.719,   PRECISION = 1.E0),
_F( CHAM_GD = TEMP_13, NOEUD = 'N122', NOM_CMP = 'TEMP',      CRITERE = 'ABSOLU',
                           VALE = 124.719,   PRECISION = 1.E0),
#
# ------ X= 0.06: ECART RELATIF
#
_F( CHAM_GD = TEMP_13, NOEUD = 'N224', NOM_CMP = 'TEMP', VALE = 107.182, PRECISION = 1.E-2),
_F( CHAM_GD = TEMP_13, NOEUD = 'N213', NOM_CMP = 'TEMP', VALE = 107.182, PRECISION = 1.E-2),
_F( CHAM_GD = TEMP_13, NOEUD = 'N204', NOM_CMP = 'TEMP', VALE = 107.182, PRECISION = 1.E-2),
_F( CHAM_GD = TEMP_13, NOEUD = 'N193', NOM_CMP = 'TEMP', VALE = 107.182, PRECISION = 1.E-2),
#
# ------ X= 0.06: ECART ABSOLU
#
_F( CHAM_GD = TEMP_13, NOEUD = 'N224', NOM_CMP = 'TEMP',      CRITERE = 'ABSOLU',
                           VALE = 107.182,   PRECISION = 1.E0),
_F( CHAM_GD = TEMP_13, NOEUD = 'N213', NOM_CMP = 'TEMP',      CRITERE = 'ABSOLU',
                           VALE = 107.182,   PRECISION = 1.E0),
_F( CHAM_GD = TEMP_13, NOEUD = 'N204', NOM_CMP = 'TEMP',      CRITERE = 'ABSOLU',
                           VALE = 107.182,   PRECISION = 1.E0),
_F( CHAM_GD = TEMP_13, NOEUD = 'N193', NOM_CMP = 'TEMP',      CRITERE = 'ABSOLU',
                           VALE = 107.182,   PRECISION = 1.E0),
#
# ------ X= 0.08: ECART RELATIF
#
_F( CHAM_GD = TEMP_13, NOEUD = 'N288', NOM_CMP = 'TEMP', VALE = 101.290, PRECISION = 1.E-2),
_F( CHAM_GD = TEMP_13, NOEUD = 'N277', NOM_CMP = 'TEMP', VALE = 101.290, PRECISION = 1.E-2),
_F( CHAM_GD = TEMP_13, NOEUD = 'N268', NOM_CMP = 'TEMP', VALE = 101.290, PRECISION = 1.E-2),
_F( CHAM_GD = TEMP_13, NOEUD = 'N257', NOM_CMP = 'TEMP', VALE = 101.290, PRECISION = 1.E-2),
#
# ------ X= 0.08: ECART ABSOLU
#
_F( CHAM_GD = TEMP_13, NOEUD = 'N288', NOM_CMP = 'TEMP',      CRITERE = 'ABSOLU',
                           VALE = 101.290,   PRECISION = 1.E0),
_F( CHAM_GD = TEMP_13, NOEUD = 'N277', NOM_CMP = 'TEMP',      CRITERE = 'ABSOLU',
                           VALE = 101.290,   PRECISION = 1.E0),
_F( CHAM_GD = TEMP_13, NOEUD = 'N268', NOM_CMP = 'TEMP',      CRITERE = 'ABSOLU',
                           VALE = 101.290,   PRECISION = 1.E0),
_F( CHAM_GD = TEMP_13, NOEUD = 'N257', NOM_CMP = 'TEMP',      CRITERE = 'ABSOLU',
                           VALE = 101.290,   PRECISION = 1.E0),
#
# ------ X= 0.10: ECART RELATIF
#
_F( CHAM_GD = TEMP_13, NOEUD = 'N352', NOM_CMP = 'TEMP', VALE = 100.134, PRECISION = 1.E-2),
_F( CHAM_GD = TEMP_13, NOEUD = 'N341', NOM_CMP = 'TEMP', VALE = 100.134, PRECISION = 1.E-2),
_F( CHAM_GD = TEMP_13, NOEUD = 'N332', NOM_CMP = 'TEMP', VALE = 100.134, PRECISION = 1.E-2),
_F( CHAM_GD = TEMP_13, NOEUD = 'N321', NOM_CMP = 'TEMP', VALE = 100.134, PRECISION = 1.E-2),
#
# ------ X= 0.10: ECART ABSOLU
#
_F( CHAM_GD = TEMP_13, NOEUD = 'N352', NOM_CMP = 'TEMP',      CRITERE = 'ABSOLU',
                           VALE = 100.134,   PRECISION = 1.E0),
_F( CHAM_GD = TEMP_13, NOEUD = 'N341', NOM_CMP = 'TEMP',      CRITERE = 'ABSOLU',
                           VALE = 100.134,   PRECISION = 1.E0),
_F( CHAM_GD = TEMP_13, NOEUD = 'N332', NOM_CMP = 'TEMP',      CRITERE = 'ABSOLU',
                           VALE = 100.134,   PRECISION = 1.E0),
_F( CHAM_GD = TEMP_13, NOEUD = 'N321', NOM_CMP = 'TEMP',      CRITERE = 'ABSOLU',
                           VALE = 100.134,   PRECISION = 1.E0))
)

FIN()
#
