# MODIF  DATE 17/01/2012   AUTEUR SELLENET N.SELLENET 
# TITRE MUR INFINI SOUMIS A UN FLUX CONSTANT AVEC PROPRIETES VARIABLES
#            CONFIGURATION MANAGEMENT OF EDF VERSION
# ======================================================================
# COPYRIGHT (C) 1991 - 2012  EDF R&D                  WWW.CODE-ASTER.ORG
# THIS PROGRAM IS FREE SOFTWARE; YOU CAN REDISTRIBUTE IT AND/OR MODIFY
# IT UNDER THE TERMS OF THE GNU GENERAL PUBLIC LICENSE AS PUBLISHED BY
# THE FREE SOFTWARE FOUNDATION; EITHER VERSION 2 OF THE LICENSE, OR   
# (AT YOUR OPTION) ANY LATER VERSION.                                 
#
# THIS PROGRAM IS DISTRIBUTED IN THE HOPE THAT IT WILL BE USEFUL, BUT 
# WITHOUT ANY WARRANTY; WITHOUT EVEN THE IMPLIED WARRANTY OF          
# MERCHANTABILITY OR FITNESS FOR A PARTICULAR PURPOSE. SEE THE GNU    
# GENERAL PUBLIC LICENSE FOR MORE DETAILS.                            
#
# YOU SHOULD HAVE RECEIVED A COPY OF THE GNU GENERAL PUBLIC LICENSE   
# ALONG WITH THIS PROGRAM; IF NOT, WRITE TO EDF R&D CODE_ASTER,       
#    1 AVENUE DU GENERAL DE GAULLE, 92141 CLAMART CEDEX, FRANCE.      
# ======================================================================
#
# MAILLES : TETRA10 , TRIA6
#

DEBUT(  CODE=_F(  NOM = 'TTNL302D',NIV_PUB_WEB='INTERNET'))

#
# LECTURE DU MAILLAGE ----------------------------------------------
#

MAIL=LIRE_MAILLAGE(FORMAT='MED', )

#
# DEFINITION DU MATERIAU -------------------------------------------
#

CONDUC=DEFI_FONCTION(   NOM_PARA='TEMP',
                              PROL_DROITE='LINEAIRE',
                             PROL_GAUCHE='LINEAIRE',
                            VALE=(    0.0,       1.0,
                                      1.0,       1.5,  )
                         )

ENTHAL=DEFI_FONCTION(   NOM_PARA='TEMP',
                              PROL_DROITE='LINEAIRE',
                             PROL_GAUCHE='LINEAIRE',
                            VALE=(   0.000,  0.00000,
                                     0.025,  0.02516,
                                     0.050,  0.05063,
                                     0.075,  0.07641,
                                     0.100,  0.10250,
                                     0.125,  0.12891,
                                     0.150,  0.15563,
                                     0.175,  0.18266,
                                     0.200,  0.21000,
                                     0.225,  0.23766,
                                     0.250,  0.26563,
                                     0.275,  0.29391,
                                     0.300,  0.32250,
                                     0.325,  0.35141,
                                     0.350,  0.38063,
                                     0.375,  0.41016,
                                     0.400,  0.44000,
                                     0.425,  0.47016,
                                     0.450,  0.50063,
                                     0.475,  0.53141,
                                     0.500,  0.56250,
# ... 19 like lines cut
                                     1.000,  1.25000,  )
                         )

MATER=DEFI_MATERIAU(   THER_NL=_F(  LAMBDA = CONDUC,
                                     BETA = ENTHAL)
                        )

#
# AFFECTATIONS: MATERIAU, MODELE, CHARGEMENT ----------------------
#


CHMAT=AFFE_MATERIAU(    MAILLAGE=MAIL,
                            AFFE=_F(  TOUT = 'OUI', MATER = MATER)
                         )

MOTH=AFFE_MODELE(      MAILLAGE=MAIL,
                            AFFE=_F(  TOUT = 'OUI',
                                   MODELISATION = '3D',
                                   PHENOMENE = 'THERMIQUE')
                         )

CHTH=AFFE_CHAR_THER(   MODELE=MOTH,
                            FLUX_REP=_F(  GROUP_MA = 'FLUX', FLUN = 1.0)
                         )

#
# DEFINITION DE LA STRATEGIE DE CALCUL ----------------------------
#


LINST=DEFI_LIST_REEL(   DEBUT=0.,INTERVALLE=(
                             _F(  JUSQU_A = 5.E-2,  NOMBRE = 10),
                             _F(  JUSQU_A = 1.E0,   NOMBRE = 19))
                          )

#
# RESOLUTION ------------------------------------------------------
#


TEMPE=THER_NON_LINE(        MODELE=MOTH,
                              ETAT_INIT=_F(  VALE = 0.0),
                              INCREMENT=_F(  LIST_INST = LINST),
                             CHAM_MATER=CHMAT,
                                  EXCIT=_F(  CHARGE = CHTH)
                         )

#
# ANALYSE DES RESULTATS -------------------------------------------
#
TEMP_01=CREA_CHAMP(  OPERATION='EXTR', TYPE_CHAM='NOEU_TEMP_R',
NOM_CHAM='TEMP', RESULTAT=TEMPE, INST=0.1 )

TEMP_02=CREA_CHAMP(  OPERATION='EXTR', TYPE_CHAM='NOEU_TEMP_R',
NOM_CHAM='TEMP', RESULTAT=TEMPE, INST=0.2 )

TEMP_03=CREA_CHAMP(  OPERATION='EXTR', TYPE_CHAM='NOEU_TEMP_R',
NOM_CHAM='TEMP', RESULTAT=TEMPE, INST=0.3 )

TEMP_04=CREA_CHAMP(  OPERATION='EXTR', TYPE_CHAM='NOEU_TEMP_R',
NOM_CHAM='TEMP', RESULTAT=TEMPE, INST=0.4 )

TEMP_05=CREA_CHAMP(  OPERATION='EXTR', TYPE_CHAM='NOEU_TEMP_R',
NOM_CHAM='TEMP', RESULTAT=TEMPE, INST=0.5 )

TEMP_06=CREA_CHAMP(  OPERATION='EXTR', TYPE_CHAM='NOEU_TEMP_R',
NOM_CHAM='TEMP', RESULTAT=TEMPE, INST=0.6 )

TEMP_07=CREA_CHAMP(  OPERATION='EXTR', TYPE_CHAM='NOEU_TEMP_R',
NOM_CHAM='TEMP', RESULTAT=TEMPE, INST=0.7 )

TEMP_08=CREA_CHAMP(  OPERATION='EXTR', TYPE_CHAM='NOEU_TEMP_R',
NOM_CHAM='TEMP', RESULTAT=TEMPE, INST=0.8 )

TEMP_09=CREA_CHAMP(  OPERATION='EXTR', TYPE_CHAM='NOEU_TEMP_R',
NOM_CHAM='TEMP', RESULTAT=TEMPE, INST=0.9 )

TEMP_10=CREA_CHAMP(  OPERATION='EXTR', TYPE_CHAM='NOEU_TEMP_R',
NOM_CHAM='TEMP', RESULTAT=TEMPE, INST=1.0 )

TEST_RESU(CHAM_NO=(
# T=0.1S
#  POINT A
_F( CHAM_GD = TEMP_01, NOEUD = 'N13',  NOM_CMP = 'TEMP', VALE = 0.330,  PRECISION = 1.E-2),
_F( CHAM_GD = TEMP_01, NOEUD = 'N13',  NOM_CMP = 'TEMP', VALE = 0.330,  PRECISION = 5.E-3,
                                                   CRITERE = 'ABSOLU'),
_F( CHAM_GD = TEMP_01, NOEUD = 'N4',   NOM_CMP = 'TEMP', VALE = 0.330,  PRECISION = 1.E-2),
_F( CHAM_GD = TEMP_01, NOEUD = 'N4',   NOM_CMP = 'TEMP', VALE = 0.330,  PRECISION = 5.E-3,
                                                   CRITERE = 'ABSOLU'),
_F( CHAM_GD = TEMP_01, NOEUD = 'N25',  NOM_CMP = 'TEMP', VALE = 0.330,  PRECISION = 1.E-2),
_F( CHAM_GD = TEMP_01, NOEUD = 'N25',  NOM_CMP = 'TEMP', VALE = 0.330,  PRECISION = 5.E-3,
                                                   CRITERE = 'ABSOLU'),
#  POINT E
_F( CHAM_GD = TEMP_01, NOEUD = 'N606', NOM_CMP = 'TEMP', VALE = 0.00394,
                                                       PRECISION = 13.E-2),
_F( CHAM_GD = TEMP_01, NOEUD = 'N606', NOM_CMP = 'TEMP', VALE = 0.00394, PRECISION = 5.E-3,
                                                    CRITERE = 'ABSOLU'),
_F( CHAM_GD = TEMP_01, NOEUD = 'N601', NOM_CMP = 'TEMP', VALE = 0.00394,
                                                       PRECISION = 13.E-2),
_F( CHAM_GD = TEMP_01, NOEUD = 'N601', NOM_CMP = 'TEMP', VALE = 0.00394, PRECISION = 5.E-3,
                                                    CRITERE = 'ABSOLU'),
_F( CHAM_GD = TEMP_01, NOEUD = 'N611', NOM_CMP = 'TEMP', VALE = 0.00394,
                                                       PRECISION = 13.E-2),
_F( CHAM_GD = TEMP_01, NOEUD = 'N611', NOM_CMP = 'TEMP', VALE = 0.00394, PRECISION = 5.E-3,
                                                    CRITERE = 'ABSOLU'),
# T=0.2S
#  POINT A
_F( CHAM_GD = TEMP_02, NOEUD = 'N13',  NOM_CMP = 'TEMP', VALE = 0.453,  PRECISION = 1.E-2),
_F( CHAM_GD = TEMP_02, NOEUD = 'N13',  NOM_CMP = 'TEMP', VALE = 0.453,  PRECISION = 5.E-3,
                                                   CRITERE = 'ABSOLU'),
_F( CHAM_GD = TEMP_02, NOEUD = 'N4',   NOM_CMP = 'TEMP', VALE = 0.453,  PRECISION = 1.E-2),
_F( CHAM_GD = TEMP_02, NOEUD = 'N4',   NOM_CMP = 'TEMP', VALE = 0.453,  PRECISION = 5.E-3,
                                                   CRITERE = 'ABSOLU'),
_F( CHAM_GD = TEMP_02, NOEUD = 'N25',  NOM_CMP = 'TEMP', VALE = 0.453,  PRECISION = 1.E-2),
_F( CHAM_GD = TEMP_02, NOEUD = 'N25',  NOM_CMP = 'TEMP', VALE = 0.453,  PRECISION = 5.E-3,
                                                   CRITERE = 'ABSOLU'),
#  POINT E
_F( CHAM_GD = TEMP_02, NOEUD = 'N606', NOM_CMP = 'TEMP', VALE = 0.0305, PRECISION = 10.E-2),
_F( CHAM_GD = TEMP_02, NOEUD = 'N606', NOM_CMP = 'TEMP', VALE = 0.0305, PRECISION = 5.E-3,
                                                   CRITERE = 'ABSOLU'),
_F( CHAM_GD = TEMP_02, NOEUD = 'N601', NOM_CMP = 'TEMP', VALE = 0.0305, PRECISION = 10.E-2),
_F( CHAM_GD = TEMP_02, NOEUD = 'N601', NOM_CMP = 'TEMP', VALE = 0.0305, PRECISION = 5.E-3,
                                                   CRITERE = 'ABSOLU'),
_F( CHAM_GD = TEMP_02, NOEUD = 'N611', NOM_CMP = 'TEMP', VALE = 0.0305, PRECISION = 10.E-2),
_F( CHAM_GD = TEMP_02, NOEUD = 'N611', NOM_CMP = 'TEMP', VALE = 0.0305, PRECISION = 5.E-3,
                                                   CRITERE = 'ABSOLU'),
# T=0.3S
#  POINT A
_F( CHAM_GD = TEMP_03, NOEUD = 'N13',  NOM_CMP = 'TEMP', VALE = 0.544,  PRECISION = 1.E-2),
_F( CHAM_GD = TEMP_03, NOEUD = 'N13',  NOM_CMP = 'TEMP', VALE = 0.544,  PRECISION = 5.E-3,
                                                   CRITERE = 'ABSOLU'),
_F( CHAM_GD = TEMP_03, NOEUD = 'N4',   NOM_CMP = 'TEMP', VALE = 0.544,  PRECISION = 1.E-2),
_F( CHAM_GD = TEMP_03, NOEUD = 'N4',   NOM_CMP = 'TEMP', VALE = 0.544,  PRECISION = 5.E-3,
                                                   CRITERE = 'ABSOLU'),
_F( CHAM_GD = TEMP_03, NOEUD = 'N25',  NOM_CMP = 'TEMP', VALE = 0.544,  PRECISION = 1.E-2),
_F( CHAM_GD = TEMP_03, NOEUD = 'N25',  NOM_CMP = 'TEMP', VALE = 0.544,  PRECISION = 5.E-3,
                                                   CRITERE = 'ABSOLU'),
#  POINT E
_F( CHAM_GD = TEMP_03, NOEUD = 'N606', NOM_CMP = 'TEMP', VALE = 0.0706, PRECISION = 1.E-2),
_F( CHAM_GD = TEMP_03, NOEUD = 'N606', NOM_CMP = 'TEMP', VALE = 0.0706, PRECISION = 5.E-3,
                                                   CRITERE = 'ABSOLU'),
_F( CHAM_GD = TEMP_03, NOEUD = 'N601', NOM_CMP = 'TEMP', VALE = 0.0706, PRECISION = 1.E-2),
_F( CHAM_GD = TEMP_03, NOEUD = 'N601', NOM_CMP = 'TEMP', VALE = 0.0706, PRECISION = 5.E-3,
                                                   CRITERE = 'ABSOLU'),
_F( CHAM_GD = TEMP_03, NOEUD = 'N611', NOM_CMP = 'TEMP', VALE = 0.0706, PRECISION = 1.E-2),
_F( CHAM_GD = TEMP_03, NOEUD = 'N611', NOM_CMP = 'TEMP', VALE = 0.0706, PRECISION = 5.E-3,
                                                   CRITERE = 'ABSOLU'),
# T=0.4S
#  POINT A
_F( CHAM_GD = TEMP_04, NOEUD = 'N13',  NOM_CMP = 'TEMP', VALE = 0.618,  PRECISION = 1.E-2),
_F( CHAM_GD = TEMP_04, NOEUD = 'N13',  NOM_CMP = 'TEMP', VALE = 0.618,  PRECISION = 5.E-3,
                                                   CRITERE = 'ABSOLU'),
_F( CHAM_GD = TEMP_04, NOEUD = 'N4',   NOM_CMP = 'TEMP', VALE = 0.618,  PRECISION = 1.E-2),
_F( CHAM_GD = TEMP_04, NOEUD = 'N4',   NOM_CMP = 'TEMP', VALE = 0.618,  PRECISION = 5.E-3,
                                                   CRITERE = 'ABSOLU'),
_F( CHAM_GD = TEMP_04, NOEUD = 'N25',  NOM_CMP = 'TEMP', VALE = 0.618,  PRECISION = 1.E-2),
_F( CHAM_GD = TEMP_04, NOEUD = 'N25',  NOM_CMP = 'TEMP', VALE = 0.618,  PRECISION = 5.E-3,
                                                   CRITERE = 'ABSOLU'),
#  POINT E
_F( CHAM_GD = TEMP_04, NOEUD = 'N606', NOM_CMP = 'TEMP', VALE = 0.115,  PRECISION = 1.E-2),
_F( CHAM_GD = TEMP_04, NOEUD = 'N606', NOM_CMP = 'TEMP', VALE = 0.115,  PRECISION = 5.E-3,
                                                   CRITERE = 'ABSOLU'),
_F( CHAM_GD = TEMP_04, NOEUD = 'N601', NOM_CMP = 'TEMP', VALE = 0.115,  PRECISION = 1.E-2),
_F( CHAM_GD = TEMP_04, NOEUD = 'N601', NOM_CMP = 'TEMP', VALE = 0.115,  PRECISION = 5.E-3,
                                                   CRITERE = 'ABSOLU'),
_F( CHAM_GD = TEMP_04, NOEUD = 'N611', NOM_CMP = 'TEMP', VALE = 0.115,  PRECISION = 1.E-2),
_F( CHAM_GD = TEMP_04, NOEUD = 'N611', NOM_CMP = 'TEMP', VALE = 0.115,  PRECISION = 5.E-3,
                                                   CRITERE = 'ABSOLU'),
# T=0.5S
#  POINT A
_F( CHAM_GD = TEMP_05, NOEUD = 'N13',  NOM_CMP = 'TEMP', VALE = 0.682,  PRECISION = 1.E-2),
_F( CHAM_GD = TEMP_05, NOEUD = 'N13',  NOM_CMP = 'TEMP', VALE = 0.682,  PRECISION = 5.E-3,
                                                   CRITERE = 'ABSOLU'),
_F( CHAM_GD = TEMP_05, NOEUD = 'N4',   NOM_CMP = 'TEMP', VALE = 0.682,  PRECISION = 1.E-2),
_F( CHAM_GD = TEMP_05, NOEUD = 'N4',   NOM_CMP = 'TEMP', VALE = 0.682,  PRECISION = 5.E-3,
                                                   CRITERE = 'ABSOLU'),
_F( CHAM_GD = TEMP_05, NOEUD = 'N25',  NOM_CMP = 'TEMP', VALE = 0.682,  PRECISION = 1.E-2),
_F( CHAM_GD = TEMP_05, NOEUD = 'N25',  NOM_CMP = 'TEMP', VALE = 0.682,  PRECISION = 5.E-3,
                                                   CRITERE = 'ABSOLU'),
#  POINT E
_F( CHAM_GD = TEMP_05, NOEUD = 'N606', NOM_CMP = 'TEMP', VALE = 0.160,  PRECISION = 1.E-2),
_F( CHAM_GD = TEMP_05, NOEUD = 'N606', NOM_CMP = 'TEMP', VALE = 0.160,  PRECISION = 5.E-3,
                                                   CRITERE = 'ABSOLU'),
_F( CHAM_GD = TEMP_05, NOEUD = 'N601', NOM_CMP = 'TEMP', VALE = 0.160,  PRECISION = 1.E-2),
_F( CHAM_GD = TEMP_05, NOEUD = 'N601', NOM_CMP = 'TEMP', VALE = 0.160,  PRECISION = 5.E-3,
                                                   CRITERE = 'ABSOLU'),
_F( CHAM_GD = TEMP_05, NOEUD = 'N611', NOM_CMP = 'TEMP', VALE = 0.160,  PRECISION = 1.E-2),
_F( CHAM_GD = TEMP_05, NOEUD = 'N611', NOM_CMP = 'TEMP', VALE = 0.160,  PRECISION = 5.E-3,
                                                   CRITERE = 'ABSOLU'),
# T=0.6S
#  POINT A
_F( CHAM_GD = TEMP_06, NOEUD = 'N13',  NOM_CMP = 'TEMP', VALE = 0.738,  PRECISION = 1.E-2),
_F( CHAM_GD = TEMP_06, NOEUD = 'N13',  NOM_CMP = 'TEMP', VALE = 0.738,  PRECISION = 5.E-3,
                                                   CRITERE = 'ABSOLU'),
_F( CHAM_GD = TEMP_06, NOEUD = 'N4',   NOM_CMP = 'TEMP', VALE = 0.738,  PRECISION = 1.E-2),
_F( CHAM_GD = TEMP_06, NOEUD = 'N4',   NOM_CMP = 'TEMP', VALE = 0.738,  PRECISION = 5.E-3,
                                                   CRITERE = 'ABSOLU'),
_F( CHAM_GD = TEMP_06, NOEUD = 'N25',  NOM_CMP = 'TEMP', VALE = 0.738,  PRECISION = 1.E-2),
_F( CHAM_GD = TEMP_06, NOEUD = 'N25',  NOM_CMP = 'TEMP', VALE = 0.738,  PRECISION = 5.E-3,
                                                   CRITERE = 'ABSOLU'),
#  POINT E
_F( CHAM_GD = TEMP_06, NOEUD = 'N606', NOM_CMP = 'TEMP', VALE = 0.204,  PRECISION = 2.E-2),
_F( CHAM_GD = TEMP_06, NOEUD = 'N606', NOM_CMP = 'TEMP', VALE = 0.204,  PRECISION = 5.E-3,
                                                   CRITERE = 'ABSOLU'),
_F( CHAM_GD = TEMP_06, NOEUD = 'N601', NOM_CMP = 'TEMP', VALE = 0.204,  PRECISION = 2.E-2),
_F( CHAM_GD = TEMP_06, NOEUD = 'N601', NOM_CMP = 'TEMP', VALE = 0.204,  PRECISION = 5.E-3,
                                                   CRITERE = 'ABSOLU'),
_F( CHAM_GD = TEMP_06, NOEUD = 'N611', NOM_CMP = 'TEMP', VALE = 0.204,  PRECISION = 2.E-2),
_F( CHAM_GD = TEMP_06, NOEUD = 'N611', NOM_CMP = 'TEMP', VALE = 0.204,  PRECISION = 5.E-3,
                                                   CRITERE = 'ABSOLU'),
# T=0.7S
#  POINT A
_F( CHAM_GD = TEMP_07, NOEUD = 'N13',  NOM_CMP = 'TEMP', VALE = 0.789,  PRECISION = 1.E-2),
_F( CHAM_GD = TEMP_07, NOEUD = 'N13',  NOM_CMP = 'TEMP', VALE = 0.789,  PRECISION = 5.E-3,
                                                   CRITERE = 'ABSOLU'),
_F( CHAM_GD = TEMP_07, NOEUD = 'N4',   NOM_CMP = 'TEMP', VALE = 0.789,  PRECISION = 1.E-2),
_F( CHAM_GD = TEMP_07, NOEUD = 'N4',   NOM_CMP = 'TEMP', VALE = 0.789,  PRECISION = 5.E-3,
                                                   CRITERE = 'ABSOLU'),
_F( CHAM_GD = TEMP_07, NOEUD = 'N25',  NOM_CMP = 'TEMP', VALE = 0.789,  PRECISION = 1.E-2),
_F( CHAM_GD = TEMP_07, NOEUD = 'N25',  NOM_CMP = 'TEMP', VALE = 0.789,  PRECISION = 5.E-3,
                                                   CRITERE = 'ABSOLU'),
#  POINT E
_F( CHAM_GD = TEMP_07, NOEUD = 'N606', NOM_CMP = 'TEMP', VALE = 0.247,  PRECISION = 2.E-2),
_F( CHAM_GD = TEMP_07, NOEUD = 'N606', NOM_CMP = 'TEMP', VALE = 0.247,  PRECISION = 5.E-3,
                                                   CRITERE = 'ABSOLU'),
_F( CHAM_GD = TEMP_07, NOEUD = 'N601', NOM_CMP = 'TEMP', VALE = 0.247,  PRECISION = 2.E-2),
_F( CHAM_GD = TEMP_07, NOEUD = 'N601', NOM_CMP = 'TEMP', VALE = 0.247,  PRECISION = 5.E-3,
                                                   CRITERE = 'ABSOLU'),
_F( CHAM_GD = TEMP_07, NOEUD = 'N611', NOM_CMP = 'TEMP', VALE = 0.247,  PRECISION = 2.E-2),
_F( CHAM_GD = TEMP_07, NOEUD = 'N611', NOM_CMP = 'TEMP', VALE = 0.247,  PRECISION = 5.E-3,
                                                   CRITERE = 'ABSOLU'),
# T=0.8S
#  POINT A
_F( CHAM_GD = TEMP_08, NOEUD = 'N13',  NOM_CMP = 'TEMP', VALE = 0.835,  PRECISION = 2.E-2),
_F( CHAM_GD = TEMP_08, NOEUD = 'N13',  NOM_CMP = 'TEMP', VALE = 0.835,  PRECISION = 5.E-3,
                                                   CRITERE = 'ABSOLU'),
_F( CHAM_GD = TEMP_08, NOEUD = 'N4',   NOM_CMP = 'TEMP', VALE = 0.835,  PRECISION = 2.E-2),
_F( CHAM_GD = TEMP_08, NOEUD = 'N4',   NOM_CMP = 'TEMP', VALE = 0.835,  PRECISION = 5.E-3,
                                                   CRITERE = 'ABSOLU'),
_F( CHAM_GD = TEMP_08, NOEUD = 'N25',  NOM_CMP = 'TEMP', VALE = 0.835,  PRECISION = 1.E-2),
_F( CHAM_GD = TEMP_08, NOEUD = 'N25',  NOM_CMP = 'TEMP', VALE = 0.835,  PRECISION = 5.E-3,
                                                   CRITERE = 'ABSOLU'),
#  POINT E
_F( CHAM_GD = TEMP_08, NOEUD = 'N606', NOM_CMP = 'TEMP', VALE = 0.288,  PRECISION = 3.E-2),
_F( CHAM_GD = TEMP_08, NOEUD = 'N606', NOM_CMP = 'TEMP', VALE = 0.288,  PRECISION = 8.E-3,
                                                   CRITERE = 'ABSOLU'),
_F( CHAM_GD = TEMP_08, NOEUD = 'N601', NOM_CMP = 'TEMP', VALE = 0.288,  PRECISION = 3.E-2),
_F( CHAM_GD = TEMP_08, NOEUD = 'N601', NOM_CMP = 'TEMP', VALE = 0.288,  PRECISION = 8.E-3,
                                                   CRITERE = 'ABSOLU'),
_F( CHAM_GD = TEMP_08, NOEUD = 'N611', NOM_CMP = 'TEMP', VALE = 0.288,  PRECISION = 3.E-2),
_F( CHAM_GD = TEMP_08, NOEUD = 'N611', NOM_CMP = 'TEMP', VALE = 0.288,  PRECISION = 8.E-3,
                                                   CRITERE = 'ABSOLU'),
# T=0.9S
#  POINT A
_F( CHAM_GD = TEMP_09, NOEUD = 'N13',  NOM_CMP = 'TEMP', VALE = 0.878,  PRECISION = 1.E-2),
_F( CHAM_GD = TEMP_09, NOEUD = 'N13',  NOM_CMP = 'TEMP', VALE = 0.878,  PRECISION = 5.E-3,
                                                   CRITERE = 'ABSOLU'),
_F( CHAM_GD = TEMP_09, NOEUD = 'N4',   NOM_CMP = 'TEMP', VALE = 0.878,  PRECISION = 1.E-2),
_F( CHAM_GD = TEMP_09, NOEUD = 'N4',   NOM_CMP = 'TEMP', VALE = 0.878,  PRECISION = 5.E-3,
                                                   CRITERE = 'ABSOLU'),
_F( CHAM_GD = TEMP_09, NOEUD = 'N25',  NOM_CMP = 'TEMP', VALE = 0.878,  PRECISION = 1.E-2),
_F( CHAM_GD = TEMP_09, NOEUD = 'N25',  NOM_CMP = 'TEMP', VALE = 0.878,  PRECISION = 5.E-3,
                                                   CRITERE = 'ABSOLU'),
#  POINT E
_F( CHAM_GD = TEMP_09, NOEUD = 'N606', NOM_CMP = 'TEMP', VALE = 0.328,  PRECISION = 4.E-2),
_F( CHAM_GD = TEMP_09, NOEUD = 'N606', NOM_CMP = 'TEMP', VALE = 0.328,  PRECISION = 11.E-3,
                                                   CRITERE = 'ABSOLU'),
_F( CHAM_GD = TEMP_09, NOEUD = 'N601', NOM_CMP = 'TEMP', VALE = 0.328,  PRECISION = 4.E-2),
_F( CHAM_GD = TEMP_09, NOEUD = 'N601', NOM_CMP = 'TEMP', VALE = 0.328,  PRECISION = 11.E-3,
                                                   CRITERE = 'ABSOLU'),
_F( CHAM_GD = TEMP_09, NOEUD = 'N611', NOM_CMP = 'TEMP', VALE = 0.328,  PRECISION = 4.E-2),
_F( CHAM_GD = TEMP_09, NOEUD = 'N611', NOM_CMP = 'TEMP', VALE = 0.328,  PRECISION = 11.E-3,
                                                   CRITERE = 'ABSOLU'),
# T=1.S
#  POINT A
_F( CHAM_GD = TEMP_10, NOEUD = 'N13',  NOM_CMP = 'TEMP', VALE = 0.918,  PRECISION = 1.E-2),
_F( CHAM_GD = TEMP_10, NOEUD = 'N13',  NOM_CMP = 'TEMP', VALE = 0.918,  PRECISION = 5.E-3,
                                                   CRITERE = 'ABSOLU'),
_F( CHAM_GD = TEMP_10, NOEUD = 'N4',   NOM_CMP = 'TEMP', VALE = 0.918,  PRECISION = 1.E-2),
_F( CHAM_GD = TEMP_10, NOEUD = 'N4',   NOM_CMP = 'TEMP', VALE = 0.918,  PRECISION = 5.E-3,
                                                   CRITERE = 'ABSOLU'),
_F( CHAM_GD = TEMP_10, NOEUD = 'N25',  NOM_CMP = 'TEMP', VALE = 0.918,  PRECISION = 1.E-2),
_F( CHAM_GD = TEMP_10, NOEUD = 'N25',  NOM_CMP = 'TEMP', VALE = 0.918,  PRECISION = 5.E-3,
                                                   CRITERE = 'ABSOLU'),
_F( CHAM_GD = TEMP_10, NOEUD = 'N1',   NOM_CMP = 'TEMP', VALE = 0.918,  PRECISION = 1.E-2),
_F( CHAM_GD = TEMP_10, NOEUD = 'N1',   NOM_CMP = 'TEMP', VALE = 0.918,  PRECISION = 5.E-3,
                                                   CRITERE = 'ABSOLU'),
_F( CHAM_GD = TEMP_10, NOEUD = 'N2',   NOM_CMP = 'TEMP', VALE = 0.918,  PRECISION = 1.E-2),
_F( CHAM_GD = TEMP_10, NOEUD = 'N2',   NOM_CMP = 'TEMP', VALE = 0.918,  PRECISION = 5.E-3,
                                                   CRITERE = 'ABSOLU'),
_F( CHAM_GD = TEMP_10, NOEUD = 'N3',   NOM_CMP = 'TEMP', VALE = 0.918,  PRECISION = 1.E-2),
_F( CHAM_GD = TEMP_10, NOEUD = 'N3',   NOM_CMP = 'TEMP', VALE = 0.918,  PRECISION = 5.E-3,
                                                   CRITERE = 'ABSOLU'),
_F( CHAM_GD = TEMP_10, NOEUD = 'N5',   NOM_CMP = 'TEMP', VALE = 0.918,  PRECISION = 1.E-2),
_F( CHAM_GD = TEMP_10, NOEUD = 'N5',   NOM_CMP = 'TEMP', VALE = 0.918,  PRECISION = 5.E-3,
                                                   CRITERE = 'ABSOLU'),
_F( CHAM_GD = TEMP_10, NOEUD = 'N9',   NOM_CMP = 'TEMP', VALE = 0.918,  PRECISION = 1.E-2),
_F( CHAM_GD = TEMP_10, NOEUD = 'N9',   NOM_CMP = 'TEMP', VALE = 0.918,  PRECISION = 5.E-3,
                                                   CRITERE = 'ABSOLU'),
_F( CHAM_GD = TEMP_10, NOEUD = 'N10',  NOM_CMP = 'TEMP', VALE = 0.918,  PRECISION = 1.E-2),
_F( CHAM_GD = TEMP_10, NOEUD = 'N10',  NOM_CMP = 'TEMP', VALE = 0.918,  PRECISION = 5.E-3,
                                                   CRITERE = 'ABSOLU'),
_F( CHAM_GD = TEMP_10, NOEUD = 'N6',   NOM_CMP = 'TEMP', VALE = 0.918,  PRECISION = 1.E-2),
_F( CHAM_GD = TEMP_10, NOEUD = 'N6',   NOM_CMP = 'TEMP', VALE = 0.918,  PRECISION = 5.E-3,
                                                   CRITERE = 'ABSOLU'),
_F( CHAM_GD = TEMP_10, NOEUD = 'N20',  NOM_CMP = 'TEMP', VALE = 0.918,  PRECISION = 1.E-2),
_F( CHAM_GD = TEMP_10, NOEUD = 'N20',  NOM_CMP = 'TEMP', VALE = 0.918,  PRECISION = 5.E-3,
                                                   CRITERE = 'ABSOLU'),
_F( CHAM_GD = TEMP_10, NOEUD = 'N24',  NOM_CMP = 'TEMP', VALE = 0.918,  PRECISION = 1.E-2),
_F( CHAM_GD = TEMP_10, NOEUD = 'N24',  NOM_CMP = 'TEMP', VALE = 0.918,  PRECISION = 5.E-3,
                                                   CRITERE = 'ABSOLU'),
#  POINT E
_F( CHAM_GD = TEMP_10, NOEUD = 'N606', NOM_CMP = 'TEMP', VALE = 0.366,  PRECISION = 4.E-2),
_F( CHAM_GD = TEMP_10, NOEUD = 'N606', NOM_CMP = 'TEMP', VALE = 0.366,  PRECISION = 15.E-3,
                                                   CRITERE = 'ABSOLU'),
_F( CHAM_GD = TEMP_10, NOEUD = 'N601', NOM_CMP = 'TEMP', VALE = 0.366,  PRECISION = 4.E-2),
_F( CHAM_GD = TEMP_10, NOEUD = 'N601', NOM_CMP = 'TEMP', VALE = 0.366,  PRECISION = 15.E-3,
                                                   CRITERE = 'ABSOLU'),
_F( CHAM_GD = TEMP_10, NOEUD = 'N611', NOM_CMP = 'TEMP', VALE = 0.366,  PRECISION = 4.E-2),
_F( CHAM_GD = TEMP_10, NOEUD = 'N611', NOM_CMP = 'TEMP', VALE = 0.366,  PRECISION = 15.E-3,
                                                   CRITERE = 'ABSOLU'),
_F( CHAM_GD = TEMP_10, NOEUD = 'N599', NOM_CMP = 'TEMP', VALE = 0.366,  PRECISION = 4.E-2),
_F( CHAM_GD = TEMP_10, NOEUD = 'N599', NOM_CMP = 'TEMP', VALE = 0.366,  PRECISION = 15.E-3,
                                                   CRITERE = 'ABSOLU'),
_F( CHAM_GD = TEMP_10, NOEUD = 'N600', NOM_CMP = 'TEMP', VALE = 0.366,  PRECISION = 4.E-2),
_F( CHAM_GD = TEMP_10, NOEUD = 'N600', NOM_CMP = 'TEMP', VALE = 0.366,  PRECISION = 15.E-3,
                                                   CRITERE = 'ABSOLU'),
_F( CHAM_GD = TEMP_10, NOEUD = 'N602', NOM_CMP = 'TEMP', VALE = 0.366,  PRECISION = 4.E-2),
_F( CHAM_GD = TEMP_10, NOEUD = 'N602', NOM_CMP = 'TEMP', VALE = 0.366,  PRECISION = 15.E-3,
                                                   CRITERE = 'ABSOLU'),
_F( CHAM_GD = TEMP_10, NOEUD = 'N603', NOM_CMP = 'TEMP', VALE = 0.366,  PRECISION = 4.E-2),
_F( CHAM_GD = TEMP_10, NOEUD = 'N603', NOM_CMP = 'TEMP', VALE = 0.366,  PRECISION = 15.E-3,
                                                   CRITERE = 'ABSOLU'),
_F( CHAM_GD = TEMP_10, NOEUD = 'N604', NOM_CMP = 'TEMP', VALE = 0.366,  PRECISION = 4.E-2),
_F( CHAM_GD = TEMP_10, NOEUD = 'N604', NOM_CMP = 'TEMP', VALE = 0.366,  PRECISION = 15.E-3,
                                                   CRITERE = 'ABSOLU'),
_F( CHAM_GD = TEMP_10, NOEUD = 'N609', NOM_CMP = 'TEMP', VALE = 0.366,  PRECISION = 4.E-2),
_F( CHAM_GD = TEMP_10, NOEUD = 'N609', NOM_CMP = 'TEMP', VALE = 0.366,  PRECISION = 15.E-3,
                                                   CRITERE = 'ABSOLU'))
   )

FIN()
#
#
