# MODIF  DATE 10/10/2012   AUTEUR COURTOIS M.COURTOIS 
# TITRE MUR INFINI SOUMIS A UN FLUX CONSTANT AVEC PROPRIETES VARIABLES
# ttnl302d.para = tps_job 60 mem_job 256Mo ncpus 1 liste_test V
#            CONFIGURATION MANAGEMENT OF EDF VERSION
# ======================================================================
# COPYRIGHT (C) 1991 - 2012  EDF R&D                  WWW.CODE-ASTER.ORG
# THIS PROGRAM IS FREE SOFTWARE; YOU CAN REDISTRIBUTE IT AND/OR MODIFY
# IT UNDER THE TERMS OF THE GNU GENERAL PUBLIC LICENSE AS PUBLISHED BY
# THE FREE SOFTWARE FOUNDATION; EITHER VERSION 2 OF THE LICENSE, OR   
# (AT YOUR OPTION) ANY LATER VERSION.                                 
#
# THIS PROGRAM IS DISTRIBUTED IN THE HOPE THAT IT WILL BE USEFUL, BUT 
# WITHOUT ANY WARRANTY; WITHOUT EVEN THE IMPLIED WARRANTY OF          
# MERCHANTABILITY OR FITNESS FOR A PARTICULAR PURPOSE. SEE THE GNU    
# GENERAL PUBLIC LICENSE FOR MORE DETAILS.                            
#
# YOU SHOULD HAVE RECEIVED A COPY OF THE GNU GENERAL PUBLIC LICENSE   
# ALONG WITH THIS PROGRAM; IF NOT, WRITE TO EDF R&D CODE_ASTER,       
#    1 AVENUE DU GENERAL DE GAULLE, 92141 CLAMART CEDEX, FRANCE.      
# ======================================================================
#
# MAILLES : TETRA10 , TRIA6
#

DEBUT(  CODE=_F(  NOM = 'TTNL302D',NIV_PUB_WEB='INTERNET'))

#
# LECTURE DU MAILLAGE ----------------------------------------------
#

MAIL=LIRE_MAILLAGE(FORMAT='MED', )

#
# DEFINITION DU MATERIAU -------------------------------------------
#

CONDUC=DEFI_FONCTION(   NOM_PARA='TEMP',
                              PROL_DROITE='LINEAIRE',
                             PROL_GAUCHE='LINEAIRE',
                            VALE=(    0.0,       1.0,
                                      1.0,       1.5,  )
                         )

ENTHAL=DEFI_FONCTION(   NOM_PARA='TEMP',
                              PROL_DROITE='LINEAIRE',
                             PROL_GAUCHE='LINEAIRE',
                            VALE=(   0.000,  0.00000,
                                     0.025,  0.02516,
                                     0.050,  0.05063,
                                     0.075,  0.07641,
                                     0.100,  0.10250,
                                     0.125,  0.12891,
                                     0.150,  0.15563,
                                     0.175,  0.18266,
                                     0.200,  0.21000,
                                     0.225,  0.23766,
                                     0.250,  0.26563,
                                     0.275,  0.29391,
                                     0.300,  0.32250,
                                     0.325,  0.35141,
                                     0.350,  0.38063,
                                     0.375,  0.41016,
                                     0.400,  0.44000,
                                     0.425,  0.47016,
                                     0.450,  0.50063,
                                     0.475,  0.53141,
                                     0.500,  0.56250,
# ... 19 like lines cut
                                     1.000,  1.25000,  )
                         )

MATER=DEFI_MATERIAU(   THER_NL=_F(  LAMBDA = CONDUC,
                                     BETA = ENTHAL)
                        )

#
# AFFECTATIONS: MATERIAU, MODELE, CHARGEMENT ----------------------
#


CHMAT=AFFE_MATERIAU(    MAILLAGE=MAIL,
                            AFFE=_F(  TOUT = 'OUI', MATER = MATER)
                         )

MOTH=AFFE_MODELE(      MAILLAGE=MAIL,
                            AFFE=_F(  TOUT = 'OUI',
                                   MODELISATION = '3D',
                                   PHENOMENE = 'THERMIQUE')
                         )

CHTH=AFFE_CHAR_THER(   MODELE=MOTH,
                            FLUX_REP=_F(  GROUP_MA = 'FLUX', FLUN = 1.0)
                         )

#
# DEFINITION DE LA STRATEGIE DE CALCUL ----------------------------
#


LINST=DEFI_LIST_REEL(   DEBUT=0.,INTERVALLE=(
                             _F(  JUSQU_A = 5.E-2,  NOMBRE = 10),
                             _F(  JUSQU_A = 1.E0,   NOMBRE = 19))
                          )

#
# RESOLUTION ------------------------------------------------------
#


TEMPE=THER_NON_LINE(        MODELE=MOTH,
                              ETAT_INIT=_F(  VALE = 0.0),
                              INCREMENT=_F(  LIST_INST = LINST),
                             CHAM_MATER=CHMAT,
                                  EXCIT=_F(  CHARGE = CHTH)
                         )

#
# ANALYSE DES RESULTATS -------------------------------------------
#
TEMP_01=CREA_CHAMP(  OPERATION='EXTR', TYPE_CHAM='NOEU_TEMP_R',
NOM_CHAM='TEMP', RESULTAT=TEMPE, INST=0.1 )

TEMP_02=CREA_CHAMP(  OPERATION='EXTR', TYPE_CHAM='NOEU_TEMP_R',
NOM_CHAM='TEMP', RESULTAT=TEMPE, INST=0.2 )

TEMP_03=CREA_CHAMP(  OPERATION='EXTR', TYPE_CHAM='NOEU_TEMP_R',
NOM_CHAM='TEMP', RESULTAT=TEMPE, INST=0.3 )

TEMP_04=CREA_CHAMP(  OPERATION='EXTR', TYPE_CHAM='NOEU_TEMP_R',
NOM_CHAM='TEMP', RESULTAT=TEMPE, INST=0.4 )

TEMP_05=CREA_CHAMP(  OPERATION='EXTR', TYPE_CHAM='NOEU_TEMP_R',
NOM_CHAM='TEMP', RESULTAT=TEMPE, INST=0.5 )

TEMP_06=CREA_CHAMP(  OPERATION='EXTR', TYPE_CHAM='NOEU_TEMP_R',
NOM_CHAM='TEMP', RESULTAT=TEMPE, INST=0.6 )

TEMP_07=CREA_CHAMP(  OPERATION='EXTR', TYPE_CHAM='NOEU_TEMP_R',
NOM_CHAM='TEMP', RESULTAT=TEMPE, INST=0.7 )

TEMP_08=CREA_CHAMP(  OPERATION='EXTR', TYPE_CHAM='NOEU_TEMP_R',
NOM_CHAM='TEMP', RESULTAT=TEMPE, INST=0.8 )

TEMP_09=CREA_CHAMP(  OPERATION='EXTR', TYPE_CHAM='NOEU_TEMP_R',
NOM_CHAM='TEMP', RESULTAT=TEMPE, INST=0.9 )

TEMP_10=CREA_CHAMP(  OPERATION='EXTR', TYPE_CHAM='NOEU_TEMP_R',
NOM_CHAM='TEMP', RESULTAT=TEMPE, INST=1.0 )

TEST_RESU(CHAM_NO=(_F(NOEUD='N13',
                      NOM_CMP='TEMP',
                      PRECISION=1.E-2,
                      CHAM_GD=TEMP_01,
                      VALE_CALC=0.329631212,
                      VALE_REFE=0.33000000000000002,
                      REFERENCE='NON_DEFINI',),
                   _F(NOEUD='N13',
                      CRITERE='ABSOLU',
                      NOM_CMP='TEMP',
                      PRECISION=5.0000000000000001E-3,
                      CHAM_GD=TEMP_01,
                      VALE_CALC=0.329631212,
                      VALE_REFE=0.33000000000000002,
                      REFERENCE='NON_DEFINI',),
                   _F(NOEUD='N4',
                      NOM_CMP='TEMP',
                      PRECISION=1.E-2,
                      CHAM_GD=TEMP_01,
                      VALE_CALC=0.329581009,
                      VALE_REFE=0.33000000000000002,
                      REFERENCE='NON_DEFINI',),
                   _F(NOEUD='N4',
                      CRITERE='ABSOLU',
                      NOM_CMP='TEMP',
                      PRECISION=5.0000000000000001E-3,
                      CHAM_GD=TEMP_01,
                      VALE_CALC=0.329581009,
                      VALE_REFE=0.33000000000000002,
                      REFERENCE='NON_DEFINI',),
                   _F(NOEUD='N25',
                      NOM_CMP='TEMP',
                      PRECISION=1.E-2,
                      CHAM_GD=TEMP_01,
                      VALE_CALC=0.329665366,
                      VALE_REFE=0.33000000000000002,
                      REFERENCE='NON_DEFINI',),
                   _F(NOEUD='N25',
                      CRITERE='ABSOLU',
                      NOM_CMP='TEMP',
                      PRECISION=5.0000000000000001E-3,
                      CHAM_GD=TEMP_01,
                      VALE_CALC=0.329665366,
                      VALE_REFE=0.33000000000000002,
                      REFERENCE='NON_DEFINI',),
                   _F(NOEUD='N606',
                      NOM_CMP='TEMP',
                      PRECISION=0.13,
                      CHAM_GD=TEMP_01,
                      VALE_CALC= 4.43667474E-03,
                      VALE_REFE=3.9399999999999999E-3,
                      REFERENCE='NON_DEFINI',),
                   _F(NOEUD='N606',
                      CRITERE='ABSOLU',
                      NOM_CMP='TEMP',
                      PRECISION=5.0000000000000001E-3,
                      CHAM_GD=TEMP_01,
                      VALE_CALC= 4.43667474E-03,
                      VALE_REFE=3.9399999999999999E-3,
                      REFERENCE='NON_DEFINI',),
                   _F(NOEUD='N601',
                      NOM_CMP='TEMP',
                      PRECISION=0.13,
                      CHAM_GD=TEMP_01,
                      VALE_CALC= 4.43715242E-03,
                      VALE_REFE=3.9399999999999999E-3,
                      REFERENCE='NON_DEFINI',),
                   _F(NOEUD='N601',
                      CRITERE='ABSOLU',
                      NOM_CMP='TEMP',
                      PRECISION=5.0000000000000001E-3,
                      CHAM_GD=TEMP_01,
                      VALE_CALC= 4.43715242E-03,
                      VALE_REFE=3.9399999999999999E-3,
                      REFERENCE='NON_DEFINI',),
                   _F(NOEUD='N611',
                      NOM_CMP='TEMP',
                      PRECISION=0.13,
                      CHAM_GD=TEMP_01,
                      VALE_CALC= 4.43788562E-03,
                      VALE_REFE=3.9399999999999999E-3,
                      REFERENCE='NON_DEFINI',),
                   _F(NOEUD='N611',
                      CRITERE='ABSOLU',
                      NOM_CMP='TEMP',
                      PRECISION=5.0000000000000001E-3,
                      CHAM_GD=TEMP_01,
                      VALE_CALC= 4.43788562E-03,
                      VALE_REFE=3.9399999999999999E-3,
                      REFERENCE='NON_DEFINI',),
                   _F(NOEUD='N13',
                      NOM_CMP='TEMP',
                      PRECISION=1.E-2,
                      CHAM_GD=TEMP_02,
                      VALE_CALC=0.452514202,
                      VALE_REFE=0.45300000000000001,
                      REFERENCE='NON_DEFINI',),
                   _F(NOEUD='N13',
                      CRITERE='ABSOLU',
                      NOM_CMP='TEMP',
                      PRECISION=5.0000000000000001E-3,
                      CHAM_GD=TEMP_02,
                      VALE_CALC=0.452514202,
                      VALE_REFE=0.45300000000000001,
                      REFERENCE='NON_DEFINI',),
                   _F(NOEUD='N4',
                      NOM_CMP='TEMP',
                      PRECISION=1.E-2,
                      CHAM_GD=TEMP_02,
                      VALE_CALC=0.452487387,
                      VALE_REFE=0.45300000000000001,
                      REFERENCE='NON_DEFINI',),
                   _F(NOEUD='N4',
                      CRITERE='ABSOLU',
                      NOM_CMP='TEMP',
                      PRECISION=5.0000000000000001E-3,
                      CHAM_GD=TEMP_02,
                      VALE_CALC=0.452487387,
                      VALE_REFE=0.45300000000000001,
                      REFERENCE='NON_DEFINI',),
                   _F(NOEUD='N25',
                      NOM_CMP='TEMP',
                      PRECISION=1.E-2,
                      CHAM_GD=TEMP_02,
                      VALE_CALC=0.452531897,
                      VALE_REFE=0.45300000000000001,
                      REFERENCE='NON_DEFINI',),
                   _F(NOEUD='N25',
                      CRITERE='ABSOLU',
                      NOM_CMP='TEMP',
                      PRECISION=5.0000000000000001E-3,
                      CHAM_GD=TEMP_02,
                      VALE_CALC=0.452531897,
                      VALE_REFE=0.45300000000000001,
                      REFERENCE='NON_DEFINI',),
                   _F(NOEUD='N606',
                      NOM_CMP='TEMP',
                      PRECISION=0.10000000000000001,
                      CHAM_GD=TEMP_02,
                      VALE_CALC=0.030801511,
                      VALE_REFE=0.030499999999999999,
                      REFERENCE='NON_DEFINI',),
                   _F(NOEUD='N606',
                      CRITERE='ABSOLU',
                      NOM_CMP='TEMP',
                      PRECISION=5.0000000000000001E-3,
                      CHAM_GD=TEMP_02,
                      VALE_CALC=0.030801511,
                      VALE_REFE=0.030499999999999999,
                      REFERENCE='NON_DEFINI',),
                   _F(NOEUD='N601',
                      NOM_CMP='TEMP',
                      PRECISION=0.10000000000000001,
                      CHAM_GD=TEMP_02,
                      VALE_CALC=0.030802296,
                      VALE_REFE=0.030499999999999999,
                      REFERENCE='NON_DEFINI',),
                   _F(NOEUD='N601',
                      CRITERE='ABSOLU',
                      NOM_CMP='TEMP',
                      PRECISION=5.0000000000000001E-3,
                      CHAM_GD=TEMP_02,
                      VALE_CALC=0.030802296,
                      VALE_REFE=0.030499999999999999,
                      REFERENCE='NON_DEFINI',),
                   _F(NOEUD='N611',
                      NOM_CMP='TEMP',
                      PRECISION=0.10000000000000001,
                      CHAM_GD=TEMP_02,
                      VALE_CALC=0.030802911,
                      VALE_REFE=0.030499999999999999,
                      REFERENCE='NON_DEFINI',),
                   _F(NOEUD='N611',
                      CRITERE='ABSOLU',
                      NOM_CMP='TEMP',
                      PRECISION=5.0000000000000001E-3,
                      CHAM_GD=TEMP_02,
                      VALE_CALC=0.030802911,
                      VALE_REFE=0.030499999999999999,
                      REFERENCE='NON_DEFINI',),
                   _F(NOEUD='N13',
                      NOM_CMP='TEMP',
                      PRECISION=1.E-2,
                      CHAM_GD=TEMP_03,
                      VALE_CALC=0.543199822,
                      VALE_REFE=0.54400000000000004,
                      REFERENCE='NON_DEFINI',),
                   _F(NOEUD='N13',
                      CRITERE='ABSOLU',
                      NOM_CMP='TEMP',
                      PRECISION=5.0000000000000001E-3,
                      CHAM_GD=TEMP_03,
                      VALE_CALC=0.543199822,
                      VALE_REFE=0.54400000000000004,
                      REFERENCE='NON_DEFINI',),
                   _F(NOEUD='N4',
                      NOM_CMP='TEMP',
                      PRECISION=1.E-2,
                      CHAM_GD=TEMP_03,
                      VALE_CALC=0.543185669,
                      VALE_REFE=0.54400000000000004,
                      REFERENCE='NON_DEFINI',),
                   _F(NOEUD='N4',
                      CRITERE='ABSOLU',
                      NOM_CMP='TEMP',
                      PRECISION=5.0000000000000001E-3,
                      CHAM_GD=TEMP_03,
                      VALE_CALC=0.543185669,
                      VALE_REFE=0.54400000000000004,
                      REFERENCE='NON_DEFINI',),
                   _F(NOEUD='N25',
                      NOM_CMP='TEMP',
                      PRECISION=1.E-2,
                      CHAM_GD=TEMP_03,
                      VALE_CALC=0.543208625,
                      VALE_REFE=0.54400000000000004,
                      REFERENCE='NON_DEFINI',),
                   _F(NOEUD='N25',
                      CRITERE='ABSOLU',
                      NOM_CMP='TEMP',
                      PRECISION=5.0000000000000001E-3,
                      CHAM_GD=TEMP_03,
                      VALE_CALC=0.543208625,
                      VALE_REFE=0.54400000000000004,
                      REFERENCE='NON_DEFINI',),
                   _F(NOEUD='N606',
                      NOM_CMP='TEMP',
                      PRECISION=1.E-2,
                      CHAM_GD=TEMP_03,
                      VALE_CALC=0.070829053,
                      VALE_REFE=0.070599999999999996,
                      REFERENCE='NON_DEFINI',),
                   _F(NOEUD='N606',
                      CRITERE='ABSOLU',
                      NOM_CMP='TEMP',
                      PRECISION=5.0000000000000001E-3,
                      CHAM_GD=TEMP_03,
                      VALE_CALC=0.070829053,
                      VALE_REFE=0.070599999999999996,
                      REFERENCE='NON_DEFINI',),
                   _F(NOEUD='N601',
                      NOM_CMP='TEMP',
                      PRECISION=1.E-2,
                      CHAM_GD=TEMP_03,
                      VALE_CALC=0.070829666,
                      VALE_REFE=0.070599999999999996,
                      REFERENCE='NON_DEFINI',),
                   _F(NOEUD='N601',
                      CRITERE='ABSOLU',
                      NOM_CMP='TEMP',
                      PRECISION=5.0000000000000001E-3,
                      CHAM_GD=TEMP_03,
                      VALE_CALC=0.070829666,
                      VALE_REFE=0.070599999999999996,
                      REFERENCE='NON_DEFINI',),
                   _F(NOEUD='N611',
                      NOM_CMP='TEMP',
                      PRECISION=1.E-2,
                      CHAM_GD=TEMP_03,
                      VALE_CALC=0.070829967,
                      VALE_REFE=0.070599999999999996,
                      REFERENCE='NON_DEFINI',),
                   _F(NOEUD='N611',
                      CRITERE='ABSOLU',
                      NOM_CMP='TEMP',
                      PRECISION=5.0000000000000001E-3,
                      CHAM_GD=TEMP_03,
                      VALE_CALC=0.070829967,
                      VALE_REFE=0.070599999999999996,
                      REFERENCE='NON_DEFINI',),
                   _F(NOEUD='N13',
                      NOM_CMP='TEMP',
                      PRECISION=1.E-2,
                      CHAM_GD=TEMP_04,
                      VALE_CALC=0.617304077,
                      VALE_REFE=0.61799999999999999,
                      REFERENCE='NON_DEFINI',),
                   _F(NOEUD='N13',
                      CRITERE='ABSOLU',
                      NOM_CMP='TEMP',
                      PRECISION=5.0000000000000001E-3,
                      CHAM_GD=TEMP_04,
                      VALE_CALC=0.617304077,
                      VALE_REFE=0.61799999999999999,
                      REFERENCE='NON_DEFINI',),
                   _F(NOEUD='N4',
                      NOM_CMP='TEMP',
                      PRECISION=1.E-2,
                      CHAM_GD=TEMP_04,
                      VALE_CALC=0.617296445,
                      VALE_REFE=0.61799999999999999,
                      REFERENCE='NON_DEFINI',),
                   _F(NOEUD='N4',
                      CRITERE='ABSOLU',
                      NOM_CMP='TEMP',
                      PRECISION=5.0000000000000001E-3,
                      CHAM_GD=TEMP_04,
                      VALE_CALC=0.617296445,
                      VALE_REFE=0.61799999999999999,
                      REFERENCE='NON_DEFINI',),
                   _F(NOEUD='N25',
                      NOM_CMP='TEMP',
                      PRECISION=1.E-2,
                      CHAM_GD=TEMP_04,
                      VALE_CALC=0.617308011,
                      VALE_REFE=0.61799999999999999,
                      REFERENCE='NON_DEFINI',),
                   _F(NOEUD='N25',
                      CRITERE='ABSOLU',
                      NOM_CMP='TEMP',
                      PRECISION=5.0000000000000001E-3,
                      CHAM_GD=TEMP_04,
                      VALE_CALC=0.617308011,
                      VALE_REFE=0.61799999999999999,
                      REFERENCE='NON_DEFINI',),
                   _F(NOEUD='N606',
                      NOM_CMP='TEMP',
                      PRECISION=1.E-2,
                      CHAM_GD=TEMP_04,
                      VALE_CALC=0.115368200,
                      VALE_REFE=0.115,
                      REFERENCE='NON_DEFINI',),
                   _F(NOEUD='N606',
                      CRITERE='ABSOLU',
                      NOM_CMP='TEMP',
                      PRECISION=5.0000000000000001E-3,
                      CHAM_GD=TEMP_04,
                      VALE_CALC=0.115368200,
                      VALE_REFE=0.115,
                      REFERENCE='NON_DEFINI',),
                   _F(NOEUD='N601',
                      NOM_CMP='TEMP',
                      PRECISION=1.E-2,
                      CHAM_GD=TEMP_04,
                      VALE_CALC=0.115368638,
                      VALE_REFE=0.115,
                      REFERENCE='NON_DEFINI',),
                   _F(NOEUD='N601',
                      CRITERE='ABSOLU',
                      NOM_CMP='TEMP',
                      PRECISION=5.0000000000000001E-3,
                      CHAM_GD=TEMP_04,
                      VALE_CALC=0.115368638,
                      VALE_REFE=0.115,
                      REFERENCE='NON_DEFINI',),
                   _F(NOEUD='N611',
                      NOM_CMP='TEMP',
                      PRECISION=1.E-2,
                      CHAM_GD=TEMP_04,
                      VALE_CALC=0.115368786,
                      VALE_REFE=0.115,
                      REFERENCE='NON_DEFINI',),
                   _F(NOEUD='N611',
                      CRITERE='ABSOLU',
                      NOM_CMP='TEMP',
                      PRECISION=5.0000000000000001E-3,
                      CHAM_GD=TEMP_04,
                      VALE_CALC=0.115368786,
                      VALE_REFE=0.115,
                      REFERENCE='NON_DEFINI',),
                   _F(NOEUD='N13',
                      NOM_CMP='TEMP',
                      PRECISION=1.E-2,
                      CHAM_GD=TEMP_05,
                      VALE_CALC=0.680950674,
                      VALE_REFE=0.68200000000000005,
                      REFERENCE='NON_DEFINI',),
                   _F(NOEUD='N13',
                      CRITERE='ABSOLU',
                      NOM_CMP='TEMP',
                      PRECISION=5.0000000000000001E-3,
                      CHAM_GD=TEMP_05,
                      VALE_CALC=0.680950674,
                      VALE_REFE=0.68200000000000005,
                      REFERENCE='NON_DEFINI',),
                   _F(NOEUD='N4',
                      NOM_CMP='TEMP',
                      PRECISION=1.E-2,
                      CHAM_GD=TEMP_05,
                      VALE_CALC=0.680946961,
                      VALE_REFE=0.68200000000000005,
                      REFERENCE='NON_DEFINI',),
                   _F(NOEUD='N4',
                      CRITERE='ABSOLU',
                      NOM_CMP='TEMP',
                      PRECISION=5.0000000000000001E-3,
                      CHAM_GD=TEMP_05,
                      VALE_CALC=0.680946961,
                      VALE_REFE=0.68200000000000005,
                      REFERENCE='NON_DEFINI',),
                   _F(NOEUD='N25',
                      NOM_CMP='TEMP',
                      PRECISION=1.E-2,
                      CHAM_GD=TEMP_05,
                      VALE_CALC=0.680952333,
                      VALE_REFE=0.68200000000000005,
                      REFERENCE='NON_DEFINI',),
                   _F(NOEUD='N25',
                      CRITERE='ABSOLU',
                      NOM_CMP='TEMP',
                      PRECISION=5.0000000000000001E-3,
                      CHAM_GD=TEMP_05,
                      VALE_CALC=0.680952333,
                      VALE_REFE=0.68200000000000005,
                      REFERENCE='NON_DEFINI',),
                   _F(NOEUD='N606',
                      NOM_CMP='TEMP',
                      PRECISION=1.E-2,
                      CHAM_GD=TEMP_05,
                      VALE_CALC=0.160940071,
                      VALE_REFE=0.16,
                      REFERENCE='NON_DEFINI',),
                   _F(NOEUD='N606',
                      CRITERE='ABSOLU',
                      NOM_CMP='TEMP',
                      PRECISION=5.0000000000000001E-3,
                      CHAM_GD=TEMP_05,
                      VALE_CALC=0.160940071,
                      VALE_REFE=0.16,
                      REFERENCE='NON_DEFINI',),
                   _F(NOEUD='N601',
                      NOM_CMP='TEMP',
                      PRECISION=1.E-2,
                      CHAM_GD=TEMP_05,
                      VALE_CALC=0.160940327,
                      VALE_REFE=0.16,
                      REFERENCE='NON_DEFINI',),
                   _F(NOEUD='N601',
                      CRITERE='ABSOLU',
                      NOM_CMP='TEMP',
                      PRECISION=5.0000000000000001E-3,
                      CHAM_GD=TEMP_05,
                      VALE_CALC=0.160940327,
                      VALE_REFE=0.16,
                      REFERENCE='NON_DEFINI',),
                   _F(NOEUD='N611',
                      NOM_CMP='TEMP',
                      PRECISION=1.E-2,
                      CHAM_GD=TEMP_05,
                      VALE_CALC=0.160940411,
                      VALE_REFE=0.16,
                      REFERENCE='NON_DEFINI',),
                   _F(NOEUD='N611',
                      CRITERE='ABSOLU',
                      NOM_CMP='TEMP',
                      PRECISION=5.0000000000000001E-3,
                      CHAM_GD=TEMP_05,
                      VALE_CALC=0.160940411,
                      VALE_REFE=0.16,
                      REFERENCE='NON_DEFINI',),
                   _F(NOEUD='N13',
                      NOM_CMP='TEMP',
                      PRECISION=1.E-2,
                      CHAM_GD=TEMP_06,
                      VALE_CALC=0.737299857,
                      VALE_REFE=0.73799999999999999,
                      REFERENCE='NON_DEFINI',),
                   _F(NOEUD='N13',
                      CRITERE='ABSOLU',
                      NOM_CMP='TEMP',
                      PRECISION=5.0000000000000001E-3,
                      CHAM_GD=TEMP_06,
                      VALE_CALC=0.737299857,
                      VALE_REFE=0.73799999999999999,
                      REFERENCE='NON_DEFINI',),
                   _F(NOEUD='N4',
                      NOM_CMP='TEMP',
                      PRECISION=1.E-2,
                      CHAM_GD=TEMP_06,
                      VALE_CALC=0.737297704,
                      VALE_REFE=0.73799999999999999,
                      REFERENCE='NON_DEFINI',),
                   _F(NOEUD='N4',
                      CRITERE='ABSOLU',
                      NOM_CMP='TEMP',
                      PRECISION=5.0000000000000001E-3,
                      CHAM_GD=TEMP_06,
                      VALE_CALC=0.737297704,
                      VALE_REFE=0.73799999999999999,
                      REFERENCE='NON_DEFINI',),
                   _F(NOEUD='N25',
                      NOM_CMP='TEMP',
                      PRECISION=1.E-2,
                      CHAM_GD=TEMP_06,
                      VALE_CALC=0.737300366,
                      VALE_REFE=0.73799999999999999,
                      REFERENCE='NON_DEFINI',),
                   _F(NOEUD='N25',
                      CRITERE='ABSOLU',
                      NOM_CMP='TEMP',
                      PRECISION=5.0000000000000001E-3,
                      CHAM_GD=TEMP_06,
                      VALE_CALC=0.737300366,
                      VALE_REFE=0.73799999999999999,
                      REFERENCE='NON_DEFINI',),
                   _F(NOEUD='N606',
                      NOM_CMP='TEMP',
                      PRECISION=0.02,
                      CHAM_GD=TEMP_06,
                      VALE_CALC=0.206292475,
                      VALE_REFE=0.20399999999999999,
                      REFERENCE='NON_DEFINI',),
                   _F(NOEUD='N606',
                      CRITERE='ABSOLU',
                      NOM_CMP='TEMP',
                      PRECISION=5.0000000000000001E-3,
                      CHAM_GD=TEMP_06,
                      VALE_CALC=0.206292475,
                      VALE_REFE=0.20399999999999999,
                      REFERENCE='NON_DEFINI',),
                   _F(NOEUD='N601',
                      NOM_CMP='TEMP',
                      PRECISION=0.02,
                      CHAM_GD=TEMP_06,
                      VALE_CALC=0.206292702,
                      VALE_REFE=0.20399999999999999,
                      REFERENCE='NON_DEFINI',),
                   _F(NOEUD='N601',
                      CRITERE='ABSOLU',
                      NOM_CMP='TEMP',
                      PRECISION=5.0000000000000001E-3,
                      CHAM_GD=TEMP_06,
                      VALE_CALC=0.206292702,
                      VALE_REFE=0.20399999999999999,
                      REFERENCE='NON_DEFINI',),
                   _F(NOEUD='N611',
                      NOM_CMP='TEMP',
                      PRECISION=0.02,
                      CHAM_GD=TEMP_06,
                      VALE_CALC=0.206292732,
                      VALE_REFE=0.20399999999999999,
                      REFERENCE='NON_DEFINI',),
                   _F(NOEUD='N611',
                      CRITERE='ABSOLU',
                      NOM_CMP='TEMP',
                      PRECISION=5.0000000000000001E-3,
                      CHAM_GD=TEMP_06,
                      VALE_CALC=0.206292732,
                      VALE_REFE=0.20399999999999999,
                      REFERENCE='NON_DEFINI',),
                   _F(NOEUD='N13',
                      NOM_CMP='TEMP',
                      PRECISION=1.E-2,
                      CHAM_GD=TEMP_07,
                      VALE_CALC=0.788274289,
                      VALE_REFE=0.78900000000000003,
                      REFERENCE='NON_DEFINI',),
                   _F(NOEUD='N13',
                      CRITERE='ABSOLU',
                      NOM_CMP='TEMP',
                      PRECISION=5.0000000000000001E-3,
                      CHAM_GD=TEMP_07,
                      VALE_CALC=0.788274289,
                      VALE_REFE=0.78900000000000003,
                      REFERENCE='NON_DEFINI',),
                   _F(NOEUD='N4',
                      NOM_CMP='TEMP',
                      PRECISION=1.E-2,
                      CHAM_GD=TEMP_07,
                      VALE_CALC=0.788273210,
                      VALE_REFE=0.78900000000000003,
                      REFERENCE='NON_DEFINI',),
                   _F(NOEUD='N4',
                      CRITERE='ABSOLU',
                      NOM_CMP='TEMP',
                      PRECISION=5.0000000000000001E-3,
                      CHAM_GD=TEMP_07,
                      VALE_CALC=0.788273210,
                      VALE_REFE=0.78900000000000003,
                      REFERENCE='NON_DEFINI',),
                   _F(NOEUD='N25',
                      NOM_CMP='TEMP',
                      PRECISION=1.E-2,
                      CHAM_GD=TEMP_07,
                      VALE_CALC=0.788274115,
                      VALE_REFE=0.78900000000000003,
                      REFERENCE='NON_DEFINI',),
                   _F(NOEUD='N25',
                      CRITERE='ABSOLU',
                      NOM_CMP='TEMP',
                      PRECISION=5.0000000000000001E-3,
                      CHAM_GD=TEMP_07,
                      VALE_CALC=0.788274115,
                      VALE_REFE=0.78900000000000003,
                      REFERENCE='NON_DEFINI',),
                   _F(NOEUD='N606',
                      NOM_CMP='TEMP',
                      PRECISION=0.02,
                      CHAM_GD=TEMP_07,
                      VALE_CALC=0.250998783,
                      VALE_REFE=0.247,
                      REFERENCE='NON_DEFINI',),
                   _F(NOEUD='N606',
                      CRITERE='ABSOLU',
                      NOM_CMP='TEMP',
                      PRECISION=5.0000000000000001E-3,
                      CHAM_GD=TEMP_07,
                      VALE_CALC=0.250998783,
                      VALE_REFE=0.247,
                      REFERENCE='NON_DEFINI',),
                   _F(NOEUD='N601',
                      NOM_CMP='TEMP',
                      PRECISION=0.02,
                      CHAM_GD=TEMP_07,
                      VALE_CALC=0.250998821,
                      VALE_REFE=0.247,
                      REFERENCE='NON_DEFINI',),
                   _F(NOEUD='N601',
                      CRITERE='ABSOLU',
                      NOM_CMP='TEMP',
                      PRECISION=5.0000000000000001E-3,
                      CHAM_GD=TEMP_07,
                      VALE_CALC=0.250998821,
                      VALE_REFE=0.247,
                      REFERENCE='NON_DEFINI',),
                   _F(NOEUD='N611',
                      NOM_CMP='TEMP',
                      PRECISION=0.02,
                      CHAM_GD=TEMP_07,
                      VALE_CALC=0.250998912,
                      VALE_REFE=0.247,
                      REFERENCE='NON_DEFINI',),
                   _F(NOEUD='N611',
                      CRITERE='ABSOLU',
                      NOM_CMP='TEMP',
                      PRECISION=5.0000000000000001E-3,
                      CHAM_GD=TEMP_07,
                      VALE_CALC=0.250998912,
                      VALE_REFE=0.247,
                      REFERENCE='NON_DEFINI',),
                   _F(NOEUD='N13',
                      NOM_CMP='TEMP',
                      PRECISION=0.02,
                      CHAM_GD=TEMP_08,
                      VALE_CALC=0.835155002,
                      VALE_REFE=0.83499999999999996,
                      REFERENCE='NON_DEFINI',),
                   _F(NOEUD='N13',
                      CRITERE='ABSOLU',
                      NOM_CMP='TEMP',
                      PRECISION=5.0000000000000001E-3,
                      CHAM_GD=TEMP_08,
                      VALE_CALC=0.835155002,
                      VALE_REFE=0.83499999999999996,
                      REFERENCE='NON_DEFINI',),
                   _F(NOEUD='N4',
                      NOM_CMP='TEMP',
                      PRECISION=0.02,
                      CHAM_GD=TEMP_08,
                      VALE_CALC=0.835154333,
                      VALE_REFE=0.83499999999999996,
                      REFERENCE='NON_DEFINI',),
                   _F(NOEUD='N4',
                      CRITERE='ABSOLU',
                      NOM_CMP='TEMP',
                      PRECISION=5.0000000000000001E-3,
                      CHAM_GD=TEMP_08,
                      VALE_CALC=0.835154333,
                      VALE_REFE=0.83499999999999996,
                      REFERENCE='NON_DEFINI',),
                   _F(NOEUD='N25',
                      NOM_CMP='TEMP',
                      PRECISION=1.E-2,
                      CHAM_GD=TEMP_08,
                      VALE_CALC=0.835154535,
                      VALE_REFE=0.83499999999999996,
                      REFERENCE='NON_DEFINI',),
                   _F(NOEUD='N25',
                      CRITERE='ABSOLU',
                      NOM_CMP='TEMP',
                      PRECISION=5.0000000000000001E-3,
                      CHAM_GD=TEMP_08,
                      VALE_CALC=0.835154535,
                      VALE_REFE=0.83499999999999996,
                      REFERENCE='NON_DEFINI',),
                   _F(NOEUD='N606',
                      NOM_CMP='TEMP',
                      PRECISION=0.029999999999999999,
                      CHAM_GD=TEMP_08,
                      VALE_CALC=0.294933181,
                      VALE_REFE=0.28799999999999998,
                      REFERENCE='NON_DEFINI',),
                   _F(NOEUD='N606',
                      CRITERE='ABSOLU',
                      NOM_CMP='TEMP',
                      PRECISION=8.0000000000000002E-3,
                      CHAM_GD=TEMP_08,
                      VALE_CALC=0.294933181,
                      VALE_REFE=0.28799999999999998,
                      REFERENCE='NON_DEFINI',),
                   _F(NOEUD='N601',
                      NOM_CMP='TEMP',
                      PRECISION=0.029999999999999999,
                      CHAM_GD=TEMP_08,
                      VALE_CALC=0.294933225,
                      VALE_REFE=0.28799999999999998,
                      REFERENCE='NON_DEFINI',),
                   _F(NOEUD='N601',
                      CRITERE='ABSOLU',
                      NOM_CMP='TEMP',
                      PRECISION=8.0000000000000002E-3,
                      CHAM_GD=TEMP_08,
                      VALE_CALC=0.294933225,
                      VALE_REFE=0.28799999999999998,
                      REFERENCE='NON_DEFINI',),
                   _F(NOEUD='N611',
                      NOM_CMP='TEMP',
                      PRECISION=0.029999999999999999,
                      CHAM_GD=TEMP_08,
                      VALE_CALC=0.294933212,
                      VALE_REFE=0.28799999999999998,
                      REFERENCE='NON_DEFINI',),
                   _F(NOEUD='N611',
                      CRITERE='ABSOLU',
                      NOM_CMP='TEMP',
                      PRECISION=8.0000000000000002E-3,
                      CHAM_GD=TEMP_08,
                      VALE_CALC=0.294933212,
                      VALE_REFE=0.28799999999999998,
                      REFERENCE='NON_DEFINI',),
                   _F(NOEUD='N13',
                      NOM_CMP='TEMP',
                      PRECISION=1.E-2,
                      CHAM_GD=TEMP_09,
                      VALE_CALC=0.878854180,
                      VALE_REFE=0.878,
                      REFERENCE='NON_DEFINI',),
                   _F(NOEUD='N13',
                      CRITERE='ABSOLU',
                      NOM_CMP='TEMP',
                      PRECISION=5.0000000000000001E-3,
                      CHAM_GD=TEMP_09,
                      VALE_CALC=0.878854180,
                      VALE_REFE=0.878,
                      REFERENCE='NON_DEFINI',),
                   _F(NOEUD='N4',
                      NOM_CMP='TEMP',
                      PRECISION=1.E-2,
                      CHAM_GD=TEMP_09,
                      VALE_CALC=0.878853569,
                      VALE_REFE=0.878,
                      REFERENCE='NON_DEFINI',),
                   _F(NOEUD='N4',
                      CRITERE='ABSOLU',
                      NOM_CMP='TEMP',
                      PRECISION=5.0000000000000001E-3,
                      CHAM_GD=TEMP_09,
                      VALE_CALC=0.878853569,
                      VALE_REFE=0.878,
                      REFERENCE='NON_DEFINI',),
                   _F(NOEUD='N25',
                      NOM_CMP='TEMP',
                      PRECISION=1.E-2,
                      CHAM_GD=TEMP_09,
                      VALE_CALC=0.878853514,
                      VALE_REFE=0.878,
                      REFERENCE='NON_DEFINI',),
                   _F(NOEUD='N25',
                      CRITERE='ABSOLU',
                      NOM_CMP='TEMP',
                      PRECISION=5.0000000000000001E-3,
                      CHAM_GD=TEMP_09,
                      VALE_CALC=0.878853514,
                      VALE_REFE=0.878,
                      REFERENCE='NON_DEFINI',),
                   _F(NOEUD='N606',
                      NOM_CMP='TEMP',
                      PRECISION=0.040000000000000001,
                      CHAM_GD=TEMP_09,
                      VALE_CALC=0.338079099,
                      VALE_REFE=0.32800000000000001,
                      REFERENCE='NON_DEFINI',),
                   _F(NOEUD='N606',
                      CRITERE='ABSOLU',
                      NOM_CMP='TEMP',
                      PRECISION=0.010999999999999999,
                      CHAM_GD=TEMP_09,
                      VALE_CALC=0.338079099,
                      VALE_REFE=0.32800000000000001,
                      REFERENCE='NON_DEFINI',),
                   _F(NOEUD='N601',
                      NOM_CMP='TEMP',
                      PRECISION=0.040000000000000001,
                      CHAM_GD=TEMP_09,
                      VALE_CALC=0.338079084,
                      VALE_REFE=0.32800000000000001,
                      REFERENCE='NON_DEFINI',),
                   _F(NOEUD='N601',
                      CRITERE='ABSOLU',
                      NOM_CMP='TEMP',
                      PRECISION=0.010999999999999999,
                      CHAM_GD=TEMP_09,
                      VALE_CALC=0.338079084,
                      VALE_REFE=0.32800000000000001,
                      REFERENCE='NON_DEFINI',),
                   _F(NOEUD='N611',
                      NOM_CMP='TEMP',
                      PRECISION=0.040000000000000001,
                      CHAM_GD=TEMP_09,
                      VALE_CALC=0.338079064,
                      VALE_REFE=0.32800000000000001,
                      REFERENCE='NON_DEFINI',),
                   _F(NOEUD='N611',
                      CRITERE='ABSOLU',
                      NOM_CMP='TEMP',
                      PRECISION=0.010999999999999999,
                      CHAM_GD=TEMP_09,
                      VALE_CALC=0.338079064,
                      VALE_REFE=0.32800000000000001,
                      REFERENCE='NON_DEFINI',),
                   _F(NOEUD='N13',
                      NOM_CMP='TEMP',
                      PRECISION=1.E-2,
                      CHAM_GD=TEMP_10,
                      VALE_CALC=0.920043201,
                      VALE_REFE=0.91800000000000004,
                      REFERENCE='NON_DEFINI',),
                   _F(NOEUD='N13',
                      CRITERE='ABSOLU',
                      NOM_CMP='TEMP',
                      PRECISION=5.0000000000000001E-3,
                      CHAM_GD=TEMP_10,
                      VALE_CALC=0.920043201,
                      VALE_REFE=0.91800000000000004,
                      REFERENCE='NON_DEFINI',),
                   _F(NOEUD='N4',
                      NOM_CMP='TEMP',
                      PRECISION=1.E-2,
                      CHAM_GD=TEMP_10,
                      VALE_CALC=0.920043003,
                      VALE_REFE=0.91800000000000004,
                      REFERENCE='NON_DEFINI',),
                   _F(NOEUD='N4',
                      CRITERE='ABSOLU',
                      NOM_CMP='TEMP',
                      PRECISION=5.0000000000000001E-3,
                      CHAM_GD=TEMP_10,
                      VALE_CALC=0.920043003,
                      VALE_REFE=0.91800000000000004,
                      REFERENCE='NON_DEFINI',),
                   _F(NOEUD='N25',
                      NOM_CMP='TEMP',
                      PRECISION=1.E-2,
                      CHAM_GD=TEMP_10,
                      VALE_CALC=0.920042415,
                      VALE_REFE=0.91800000000000004,
                      REFERENCE='NON_DEFINI',),
                   _F(NOEUD='N25',
                      CRITERE='ABSOLU',
                      NOM_CMP='TEMP',
                      PRECISION=5.0000000000000001E-3,
                      CHAM_GD=TEMP_10,
                      VALE_CALC=0.920042415,
                      VALE_REFE=0.91800000000000004,
                      REFERENCE='NON_DEFINI',),
                   _F(NOEUD='N1',
                      NOM_CMP='TEMP',
                      PRECISION=1.E-2,
                      CHAM_GD=TEMP_10,
                      VALE_CALC=0.920043810,
                      VALE_REFE=0.91800000000000004,
                      REFERENCE='NON_DEFINI',),
                   _F(NOEUD='N1',
                      CRITERE='ABSOLU',
                      NOM_CMP='TEMP',
                      PRECISION=5.0000000000000001E-3,
                      CHAM_GD=TEMP_10,
                      VALE_CALC=0.920043810,
                      VALE_REFE=0.91800000000000004,
                      REFERENCE='NON_DEFINI',),
                   _F(NOEUD='N2',
                      NOM_CMP='TEMP',
                      PRECISION=1.E-2,
                      CHAM_GD=TEMP_10,
                      VALE_CALC=0.920045264,
                      VALE_REFE=0.91800000000000004,
                      REFERENCE='NON_DEFINI',),
                   _F(NOEUD='N2',
                      CRITERE='ABSOLU',
                      NOM_CMP='TEMP',
                      PRECISION=5.0000000000000001E-3,
                      CHAM_GD=TEMP_10,
                      VALE_CALC=0.920045264,
                      VALE_REFE=0.91800000000000004,
                      REFERENCE='NON_DEFINI',),
                   _F(NOEUD='N3',
                      NOM_CMP='TEMP',
                      PRECISION=1.E-2,
                      CHAM_GD=TEMP_10,
                      VALE_CALC=0.920043306,
                      VALE_REFE=0.91800000000000004,
                      REFERENCE='NON_DEFINI',),
                   _F(NOEUD='N3',
                      CRITERE='ABSOLU',
                      NOM_CMP='TEMP',
                      PRECISION=5.0000000000000001E-3,
                      CHAM_GD=TEMP_10,
                      VALE_CALC=0.920043306,
                      VALE_REFE=0.91800000000000004,
                      REFERENCE='NON_DEFINI',),
                   _F(NOEUD='N5',
                      NOM_CMP='TEMP',
                      PRECISION=1.E-2,
                      CHAM_GD=TEMP_10,
                      VALE_CALC=0.920042474,
                      VALE_REFE=0.91800000000000004,
                      REFERENCE='NON_DEFINI',),
                   _F(NOEUD='N5',
                      CRITERE='ABSOLU',
                      NOM_CMP='TEMP',
                      PRECISION=5.0000000000000001E-3,
                      CHAM_GD=TEMP_10,
                      VALE_CALC=0.920042474,
                      VALE_REFE=0.91800000000000004,
                      REFERENCE='NON_DEFINI',),
                   _F(NOEUD='N9',
                      NOM_CMP='TEMP',
                      PRECISION=1.E-2,
                      CHAM_GD=TEMP_10,
                      VALE_CALC=0.920043093,
                      VALE_REFE=0.91800000000000004,
                      REFERENCE='NON_DEFINI',),
                   _F(NOEUD='N9',
                      CRITERE='ABSOLU',
                      NOM_CMP='TEMP',
                      PRECISION=5.0000000000000001E-3,
                      CHAM_GD=TEMP_10,
                      VALE_CALC=0.920043093,
                      VALE_REFE=0.91800000000000004,
                      REFERENCE='NON_DEFINI',),
                   _F(NOEUD='N10',
                      NOM_CMP='TEMP',
                      PRECISION=1.E-2,
                      CHAM_GD=TEMP_10,
                      VALE_CALC=0.920043412,
                      VALE_REFE=0.91800000000000004,
                      REFERENCE='NON_DEFINI',),
                   _F(NOEUD='N10',
                      CRITERE='ABSOLU',
                      NOM_CMP='TEMP',
                      PRECISION=5.0000000000000001E-3,
                      CHAM_GD=TEMP_10,
                      VALE_CALC=0.920043412,
                      VALE_REFE=0.91800000000000004,
                      REFERENCE='NON_DEFINI',),
                   _F(NOEUD='N6',
                      NOM_CMP='TEMP',
                      PRECISION=1.E-2,
                      CHAM_GD=TEMP_10,
                      VALE_CALC=0.920044205,
                      VALE_REFE=0.91800000000000004,
                      REFERENCE='NON_DEFINI',),
                   _F(NOEUD='N6',
                      CRITERE='ABSOLU',
                      NOM_CMP='TEMP',
                      PRECISION=5.0000000000000001E-3,
                      CHAM_GD=TEMP_10,
                      VALE_CALC=0.920044205,
                      VALE_REFE=0.91800000000000004,
                      REFERENCE='NON_DEFINI',),
                   _F(NOEUD='N20',
                      NOM_CMP='TEMP',
                      PRECISION=1.E-2,
                      CHAM_GD=TEMP_10,
                      VALE_CALC=0.920043755,
                      VALE_REFE=0.91800000000000004,
                      REFERENCE='NON_DEFINI',),
                   _F(NOEUD='N20',
                      CRITERE='ABSOLU',
                      NOM_CMP='TEMP',
                      PRECISION=5.0000000000000001E-3,
                      CHAM_GD=TEMP_10,
                      VALE_CALC=0.920043755,
                      VALE_REFE=0.91800000000000004,
                      REFERENCE='NON_DEFINI',),
                   _F(NOEUD='N24',
                      NOM_CMP='TEMP',
                      PRECISION=1.E-2,
                      CHAM_GD=TEMP_10,
                      VALE_CALC=0.920043093,
                      VALE_REFE=0.91800000000000004,
                      REFERENCE='NON_DEFINI',),
                   _F(NOEUD='N24',
                      CRITERE='ABSOLU',
                      NOM_CMP='TEMP',
                      PRECISION=5.0000000000000001E-3,
                      CHAM_GD=TEMP_10,
                      VALE_CALC=0.920043093,
                      VALE_REFE=0.91800000000000004,
                      REFERENCE='NON_DEFINI',),
                   _F(NOEUD='N606',
                      NOM_CMP='TEMP',
                      PRECISION=0.040000000000000001,
                      CHAM_GD=TEMP_10,
                      VALE_CALC=0.380456899,
                      VALE_REFE=0.36599999999999999,
                      REFERENCE='NON_DEFINI',),
                   _F(NOEUD='N606',
                      CRITERE='ABSOLU',
                      NOM_CMP='TEMP',
                      PRECISION=0.014999999999999999,
                      CHAM_GD=TEMP_10,
                      VALE_CALC=0.380456899,
                      VALE_REFE=0.36599999999999999,
                      REFERENCE='NON_DEFINI',),
                   _F(NOEUD='N601',
                      NOM_CMP='TEMP',
                      PRECISION=0.040000000000000001,
                      CHAM_GD=TEMP_10,
                      VALE_CALC=0.380456974,
                      VALE_REFE=0.36599999999999999,
                      REFERENCE='NON_DEFINI',),
                   _F(NOEUD='N601',
                      CRITERE='ABSOLU',
                      NOM_CMP='TEMP',
                      PRECISION=0.014999999999999999,
                      CHAM_GD=TEMP_10,
                      VALE_CALC=0.380456974,
                      VALE_REFE=0.36599999999999999,
                      REFERENCE='NON_DEFINI',),
                   _F(NOEUD='N611',
                      NOM_CMP='TEMP',
                      PRECISION=0.040000000000000001,
                      CHAM_GD=TEMP_10,
                      VALE_CALC=0.380456842,
                      VALE_REFE=0.36599999999999999,
                      REFERENCE='NON_DEFINI',),
                   _F(NOEUD='N611',
                      CRITERE='ABSOLU',
                      NOM_CMP='TEMP',
                      PRECISION=0.014999999999999999,
                      CHAM_GD=TEMP_10,
                      VALE_CALC=0.380456842,
                      VALE_REFE=0.36599999999999999,
                      REFERENCE='NON_DEFINI',),
                   _F(NOEUD='N599',
                      NOM_CMP='TEMP',
                      PRECISION=0.040000000000000001,
                      CHAM_GD=TEMP_10,
                      VALE_CALC=0.380456889,
                      VALE_REFE=0.36599999999999999,
                      REFERENCE='NON_DEFINI',),
                   _F(NOEUD='N599',
                      CRITERE='ABSOLU',
                      NOM_CMP='TEMP',
                      PRECISION=0.014999999999999999,
                      CHAM_GD=TEMP_10,
                      VALE_CALC=0.380456889,
                      VALE_REFE=0.36599999999999999,
                      REFERENCE='NON_DEFINI',),
                   _F(NOEUD='N600',
                      NOM_CMP='TEMP',
                      PRECISION=0.040000000000000001,
                      CHAM_GD=TEMP_10,
                      VALE_CALC=0.380456791,
                      VALE_REFE=0.36599999999999999,
                      REFERENCE='NON_DEFINI',),
                   _F(NOEUD='N600',
                      CRITERE='ABSOLU',
                      NOM_CMP='TEMP',
                      PRECISION=0.014999999999999999,
                      CHAM_GD=TEMP_10,
                      VALE_CALC=0.380456791,
                      VALE_REFE=0.36599999999999999,
                      REFERENCE='NON_DEFINI',),
                   _F(NOEUD='N602',
                      NOM_CMP='TEMP',
                      PRECISION=0.040000000000000001,
                      CHAM_GD=TEMP_10,
                      VALE_CALC=0.380456857,
                      VALE_REFE=0.36599999999999999,
                      REFERENCE='NON_DEFINI',),
                   _F(NOEUD='N602',
                      CRITERE='ABSOLU',
                      NOM_CMP='TEMP',
                      PRECISION=0.014999999999999999,
                      CHAM_GD=TEMP_10,
                      VALE_CALC=0.380456857,
                      VALE_REFE=0.36599999999999999,
                      REFERENCE='NON_DEFINI',),
                   _F(NOEUD='N603',
                      NOM_CMP='TEMP',
                      PRECISION=0.040000000000000001,
                      CHAM_GD=TEMP_10,
                      VALE_CALC=0.380456806,
                      VALE_REFE=0.36599999999999999,
                      REFERENCE='NON_DEFINI',),
                   _F(NOEUD='N603',
                      CRITERE='ABSOLU',
                      NOM_CMP='TEMP',
                      PRECISION=0.014999999999999999,
                      CHAM_GD=TEMP_10,
                      VALE_CALC=0.380456806,
                      VALE_REFE=0.36599999999999999,
                      REFERENCE='NON_DEFINI',),
                   _F(NOEUD='N604',
                      NOM_CMP='TEMP',
                      PRECISION=0.040000000000000001,
                      CHAM_GD=TEMP_10,
                      VALE_CALC=0.380456903,
                      VALE_REFE=0.36599999999999999,
                      REFERENCE='NON_DEFINI',),
                   _F(NOEUD='N604',
                      CRITERE='ABSOLU',
                      NOM_CMP='TEMP',
                      PRECISION=0.014999999999999999,
                      CHAM_GD=TEMP_10,
                      VALE_CALC=0.380456903,
                      VALE_REFE=0.36599999999999999,
                      REFERENCE='NON_DEFINI',),
                   _F(NOEUD='N609',
                      NOM_CMP='TEMP',
                      PRECISION=0.040000000000000001,
                      CHAM_GD=TEMP_10,
                      VALE_CALC=0.380456712,
                      VALE_REFE=0.36599999999999999,
                      REFERENCE='NON_DEFINI',),
                   _F(NOEUD='N609',
                      CRITERE='ABSOLU',
                      NOM_CMP='TEMP',
                      PRECISION=0.014999999999999999,
                      CHAM_GD=TEMP_10,
                      VALE_CALC=0.380456712,
                      VALE_REFE=0.36599999999999999,
                      REFERENCE='NON_DEFINI',),
                   ),
          )

FIN()
#
#
