# ======================================================================
# COPYRIGHT (C) 1991 - 2016  EDF R&D                  WWW.CODE-ASTER.ORG
# THIS PROGRAM IS FREE SOFTWARE; YOU CAN REDISTRIBUTE IT AND/OR MODIFY
# IT UNDER THE TERMS OF THE GNU GENERAL PUBLIC LICENSE AS PUBLISHED BY
# THE FREE SOFTWARE FOUNDATION; EITHER VERSION 2 OF THE LICENSE, OR
# (AT YOUR OPTION) ANY LATER VERSION.
#
# THIS PROGRAM IS DISTRIBUTED IN THE HOPE THAT IT WILL BE USEFUL, BUT
# WITHOUT ANY WARRANTY; WITHOUT EVEN THE IMPLIED WARRANTY OF
# MERCHANTABILITY OR FITNESS FOR A PARTICULAR PURPOSE. SEE THE GNU
# GENERAL PUBLIC LICENSE FOR MORE DETAILS.
#
# YOU SHOULD HAVE RECEIVED A COPY OF THE GNU GENERAL PUBLIC LICENSE
# ALONG WITH THIS PROGRAM; IF NOT, WRITE TO EDF R&D CODE_ASTER,
#    1 AVENUE DU GENERAL DE GAULLE, 92141 CLAMART CEDEX, FRANCE.
# ======================================================================

DEBUT(CODE=_F(NIV_PUB_WEB='INTERNET'),DEBUG=_F(SDVERI='OUI'))

T740=DEFI_FONCTION(     NOM_RESU='TEMP',  NOM_PARA='INST',
                            VALE=(    0.0,  740.0,
                                   1200.0,  740.0, )
                        )

T580=DEFI_FONCTION(     NOM_RESU='TEMP',  NOM_PARA='INST',
                            VALE=(    0.0,  580.0,
                                   1200.0,  580.0, )
                        )

CONDUC=DEFI_FONCTION(
       NOM_PARA='TEMP',
       VALE=(    0.0,    210.0,
               660.0,    210.0,
               660.1,     95.0,
              1200.00,    95.0, ),
         PROL_DROITE='LINEAIRE',
        PROL_GAUCHE='LINEAIRE'
      )

ENTHAL1=DEFI_FONCTION(
       NOM_PARA='TEMP',
       VALE=(    0.0,      0.0,
               655.0,      1.950E9,
               665.0,      3.0857593E9,
              1200.00,     4.451E9,
              ),
         PROL_DROITE='LINEAIRE',
        PROL_GAUCHE='LINEAIRE'
      )

ALU1=DEFI_MATERIAU( THER_NL=_F(  LAMBDA = CONDUC,
                                  BETA = ENTHAL1) )

MAILQ8=LIRE_MAILLAGE(FORMAT='MED', )

MAILQ8=DEFI_GROUP( reuse=MAILQ8,        MAILLAGE=MAILQ8,
                          CREA_GROUP_NO=_F(  TOUT_GROUP_MA = 'OUI')
                      )

MAIL=CREA_MAILLAGE(       MAILLAGE=MAILQ8,
                        MODI_MAILLE=_F(  OPTION = 'QUAD8_9',
                                      TOUT = 'OUI')
                     )

CHMAT1=AFFE_MATERIAU(  MAILLAGE=MAIL,
                AFFE=_F(  TOUT = 'OUI', MATER = ALU1) )

MOTH=AFFE_MODELE(  MAILLAGE=MAIL,
                      AFFE=_F( TOUT = 'OUI', MODELISATION = 'PLAN_DIAG',
                                      PHENOMENE = 'THERMIQUE'))

CHAVI=CREA_CHAMP( OPERATION='AFFE', TYPE_CHAM='NOEU_DEPL_R',
MAILLAGE=MAIL,
   AFFE=_F(  TOUT = 'OUI', NOM_CMP = ('DX', 'DY',), VALE = (0., 0.,)))

CHTH=AFFE_CHAR_THER_F(MODELE=MOTH,TEMP_IMPO=(
          _F( GROUP_NO = 'GRNM2',  TEMP = T740),
          _F( GROUP_NO = 'GRNM1',  TEMP = T580)),
          CONVECTION=_F( VITESSE = CHAVI)  )

TINIT=CREA_CHAMP( OPERATION='AFFE', TYPE_CHAM='NOEU_TEMP_R',
MAILLAGE=MAIL,
                           AFFE=_F(  TOUT = 'OUI', NOM_CMP = 'TEMP',
                                  VALE = 740.)
                       )

F=DEFI_CONSTANTE(     VALE=1. )

LR8=DEFI_LIST_REEL(        DEBUT=0.E0,INTERVALLE=(
       _F(    JUSQU_A = 5.E-3, NOMBRE = 10),
       _F(    JUSQU_A = 5.E-2, NOMBRE = 9),
       _F(    JUSQU_A = 4.E-0, NOMBRE = 79),
       _F(    JUSQU_A = 6.E-0, NOMBRE = 20))
                       )

TEMPE=THER_NON_LINE(    MODELE=MOTH,
             ETAT_INIT=_F(  CHAM_NO = TINIT),
             INCREMENT=_F(  LIST_INST = LR8,
                         NUME_INST_FIN = 10),
            CHAM_MATER=CHMAT1,
             EXCIT=_F(  CHARGE = CHTH, FONC_MULT = F),
                  NEWTON=_F(  ITER_LINE_MAXI = 2,
                           REAC_ITER = 2),
             CONVERGENCE=_F(  RESI_GLOB_MAXI = 1.E-1),
             PARM_THETA=0.9
             )

TEMPE=THER_NON_LINE( reuse=TEMPE,   MODELE=MOTH,
             ETAT_INIT=_F(  EVOL_THER = TEMPE,
                         NUME_ORDRE = 10),
             INCREMENT=_F(  LIST_INST = LR8,
                         NUME_INST_INIT = 10,
                         NUME_INST_FIN = 118),
            CHAM_MATER=CHMAT1,
             EXCIT=_F(  CHARGE = CHTH),
             NEWTON=_F( ITER_LINE_MAXI = 3,
                     REAC_ITER = 1),
             CONVERGENCE=_F(  RESI_GLOB_MAXI = 1.E-1,
                           ITER_GLOB_MAXI = 20),
             PARM_THETA=0.57
             )

T_1=CREA_CHAMP( OPERATION='EXTR', TYPE_CHAM='NOEU_TEMP_R',
RESULTAT=TEMPE, NOM_CHAM='TEMP',
             INST=0.5 )

T_2=CREA_CHAMP( OPERATION='EXTR', TYPE_CHAM='NOEU_TEMP_R',
RESULTAT=TEMPE, NOM_CHAM='TEMP',
             INST=1.0 )

T_3=CREA_CHAMP( OPERATION='EXTR', TYPE_CHAM='NOEU_TEMP_R',
RESULTAT=TEMPE, NOM_CHAM='TEMP',
             INST=3.0 )

T_4=CREA_CHAMP( OPERATION='EXTR', TYPE_CHAM='NOEU_TEMP_R',
RESULTAT=TEMPE, NOM_CHAM='TEMP',
             INST=6.0 )

TEST_RESU(CHAM_NO=(_F(NOEUD='N6',
                      REFERENCE='ANALYTIQUE',
                      NOM_CMP='TEMP',
                      PRECISION=1.E-2,
                      CHAM_GD=T_1,
                      VALE_CALC=686.247546210,
                      VALE_REFE=682.42999999999995,),
                   _F(NOEUD='N6',
                      REFERENCE='ANALYTIQUE',
                      NOM_CMP='TEMP',
                      PRECISION=1.E-2,
                      CHAM_GD=T_2,
                      VALE_CALC=662.391872622,
                      VALE_REFE=661.33000000000004,),
                   _F(NOEUD='N6',
                      REFERENCE='ANALYTIQUE',
                      NOM_CMP='TEMP',
                      PRECISION=1.E-2,
                      CHAM_GD=T_3,
                      VALE_CALC=632.767602913,
                      VALE_REFE=628.20000000000005,),
                   _F(NOEUD='N6',
                      REFERENCE='ANALYTIQUE',
                      NOM_CMP='TEMP',
                      PRECISION=1.E-2,
                      CHAM_GD=T_4,
                      VALE_CALC=618.163185994,
                      VALE_REFE=614.25,),
                   _F(NOEUD='N11',
                      REFERENCE='ANALYTIQUE',
                      NOM_CMP='TEMP',
                      PRECISION=1.E-2,
                      CHAM_GD=T_1,
                      VALE_CALC=724.147307908,
                      VALE_REFE=726.04999999999995,),
                   _F(NOEUD='N11',
                      REFERENCE='ANALYTIQUE',
                      NOM_CMP='TEMP',
                      PRECISION=1.E-2,
                      CHAM_GD=T_2,
                      VALE_CALC=704.653611704,
                      VALE_REFE=705.75,),
                   _F(NOEUD='N11',
                      REFERENCE='ANALYTIQUE',
                      NOM_CMP='TEMP',
                      PRECISION=1.E-2,
                      CHAM_GD=T_3,
                      VALE_CALC=672.891190039,
                      VALE_REFE=669.63,),
                   _F(NOEUD='N11',
                      REFERENCE='ANALYTIQUE',
                      NOM_CMP='TEMP',
                      PRECISION=0.014999999999999999,
                      CHAM_GD=T_4,
                      VALE_CALC=655.676476101,
                      VALE_REFE=647.49000000000001,),
                   _F(NOEUD='N16',
                      REFERENCE='ANALYTIQUE',
                      NOM_CMP='TEMP',
                      PRECISION=1.E-2,
                      CHAM_GD=T_1,
                      VALE_CALC=737.050814852,
                      VALE_REFE=738.11000000000001,),
                   _F(NOEUD='N16',
                      REFERENCE='ANALYTIQUE',
                      NOM_CMP='TEMP',
                      PRECISION=1.E-2,
                      CHAM_GD=T_2,
                      VALE_CALC=727.803986731,
                      VALE_REFE=728.70000000000005,),
                   _F(NOEUD='N16',
                      REFERENCE='ANALYTIQUE',
                      NOM_CMP='TEMP',
                      PRECISION=1.E-2,
                      CHAM_GD=T_3,
                      VALE_CALC=697.221519973,
                      VALE_REFE=696.05999999999995,),
                   _F(NOEUD='N16',
                      REFERENCE='ANALYTIQUE',
                      NOM_CMP='TEMP',
                      PRECISION=1.E-2,
                      CHAM_GD=T_4,
                      VALE_CALC=675.007431477,
                      VALE_REFE=673.22000000000003,),
                   _F(NOEUD='N21',
                      REFERENCE='ANALYTIQUE',
                      NOM_CMP='TEMP',
                      PRECISION=1.E-2,
                      CHAM_GD=T_1,
                      VALE_CALC=739.629980523,
                      VALE_REFE=739.86000000000001,),
                   _F(NOEUD='N21',
                      REFERENCE='ANALYTIQUE',
                      NOM_CMP='TEMP',
                      PRECISION=1.E-2,
                      CHAM_GD=T_2,
                      VALE_CALC=736.644625564,
                      VALE_REFE=737.22000000000003,),
                   _F(NOEUD='N21',
                      REFERENCE='ANALYTIQUE',
                      NOM_CMP='TEMP',
                      PRECISION=1.E-2,
                      CHAM_GD=T_3,
                      VALE_CALC=715.162356455,
                      VALE_REFE=714.94000000000005,),
                   _F(NOEUD='N21',
                      REFERENCE='ANALYTIQUE',
                      NOM_CMP='TEMP',
                      PRECISION=1.E-2,
                      CHAM_GD=T_4,
                      VALE_CALC=693.365661250,
                      VALE_REFE=692.05999999999995,),
                   ),
          )

FIN()
#
