# MODIF  DATE 10/10/2012   AUTEUR COURTOIS M.COURTOIS 
# TITRE MUR INFINI SOUMIS A UN FLUX CONSTANT AVEC PROPRIETES VARIABLES
# ttnl302c.para = tps_job 60 mem_job 512Mo ncpus 1 liste_test S
#            CONFIGURATION MANAGEMENT OF EDF VERSION
# ======================================================================
# COPYRIGHT (C) 1991 - 2012  EDF R&D                  WWW.CODE-ASTER.ORG
# THIS PROGRAM IS FREE SOFTWARE; YOU CAN REDISTRIBUTE IT AND/OR MODIFY
# IT UNDER THE TERMS OF THE GNU GENERAL PUBLIC LICENSE AS PUBLISHED BY
# THE FREE SOFTWARE FOUNDATION; EITHER VERSION 2 OF THE LICENSE, OR
# (AT YOUR OPTION) ANY LATER VERSION.
#
# THIS PROGRAM IS DISTRIBUTED IN THE HOPE THAT IT WILL BE USEFUL, BUT
# WITHOUT ANY WARRANTY; WITHOUT EVEN THE IMPLIED WARRANTY OF
# MERCHANTABILITY OR FITNESS FOR A PARTICULAR PURPOSE. SEE THE GNU
# GENERAL PUBLIC LICENSE FOR MORE DETAILS.
#
# YOU SHOULD HAVE RECEIVED A COPY OF THE GNU GENERAL PUBLIC LICENSE
# ALONG WITH THIS PROGRAM; IF NOT, WRITE TO EDF R&D CODE_ASTER,
#    1 AVENUE DU GENERAL DE GAULLE, 92141 CLAMART CEDEX, FRANCE.
# ======================================================================
#
# MAILLES : TETRA4 , TRIA3
#

DEBUT(CODE=_F(NOM='TTNL302C',NIV_PUB_WEB='INTERNET'),DEBUG=_F(SDVERI='OUI'))

#
# LECTURE DU MAILLAGE ----------------------------------------------
#

MAIL=LIRE_MAILLAGE(FORMAT='MED', )

#
# DEFINITION DU MATERIAU -------------------------------------------
#

CONDUC=DEFI_FONCTION(   NOM_PARA='TEMP',
                              PROL_DROITE='LINEAIRE',
                             PROL_GAUCHE='LINEAIRE',
                            VALE=(    0.0,       1.0,
                                    100.0,      51.0,  )
                         )

ENTHAL=DEFI_FONCTION(   NOM_PARA='TEMP',
                              PROL_DROITE='LINEAIRE',
                             PROL_GAUCHE='LINEAIRE',
                            VALE=(   0.000,  0.00000,
                                     0.025,  0.02516,
                                     0.050,  0.05063,
                                     0.075,  0.07641,
                                     0.100,  0.10250,
                                     0.125,  0.12891,
                                     0.150,  0.15563,
                                     0.175,  0.18266,
                                     0.200,  0.21000,
                                     0.225,  0.23766,
                                     0.250,  0.26563,
                                     0.275,  0.29391,
                                     0.300,  0.32250,
                                     0.325,  0.35141,
                                     0.350,  0.38063,
                                     0.375,  0.41016,
                                     0.400,  0.44000,
                                     0.425,  0.47016,
                                     0.450,  0.50063,
                                     0.475,  0.53141,
                                     0.500,  0.56250,
# ... 19 like lines cut
                                     1.000,  1.25000,  )
                         )

MATER=DEFI_MATERIAU(   THER_NL=_F(  LAMBDA = CONDUC,
                                     BETA = ENTHAL)
                        )

#
# AFFECTATIONS: MATERIAU, MODELE, CHARGEMENT ----------------------
#


CHMAT=AFFE_MATERIAU(    MAILLAGE=MAIL,
                            AFFE=_F(  TOUT = 'OUI', MATER = MATER)
                         )

MOTH=AFFE_MODELE(      MAILLAGE=MAIL,
                            AFFE=_F(  TOUT = 'OUI',
                                   MODELISATION = '3D',
                                   PHENOMENE = 'THERMIQUE')
                         )

CHTH=AFFE_CHAR_THER(   MODELE=MOTH,
                            FLUX_REP=_F(  GROUP_MA = 'FLUX', FLUN = 1.0)
                         )

#
# DEFINITION DE LA STRATEGIE DE CALCUL ----------------------------
#


LINST=DEFI_LIST_REEL(   DEBUT=0.,INTERVALLE=(
                             _F(  JUSQU_A = 5.E-2,  NOMBRE = 10),
                             _F(  JUSQU_A = 1.E0,   NOMBRE = 19))
                          )

#
# RESOLUTION ------------------------------------------------------
#


TEMPE=THER_NON_LINE(        MODELE=MOTH,
                              ETAT_INIT=_F(  VALE = 0.0),
                              INCREMENT=_F(  LIST_INST = LINST),
                             CHAM_MATER=CHMAT,
                                  EXCIT=_F(  CHARGE = CHTH)
                         )

#
# ANALYSE DES RESULTATS -------------------------------------------
#
TEMP_01=CREA_CHAMP(  OPERATION='EXTR', TYPE_CHAM='NOEU_TEMP_R',
NOM_CHAM='TEMP', RESULTAT=TEMPE, INST=0.1 )

TEMP_02=CREA_CHAMP(  OPERATION='EXTR', TYPE_CHAM='NOEU_TEMP_R',
NOM_CHAM='TEMP', RESULTAT=TEMPE, INST=0.2 )

TEMP_03=CREA_CHAMP(  OPERATION='EXTR', TYPE_CHAM='NOEU_TEMP_R',
NOM_CHAM='TEMP', RESULTAT=TEMPE, INST=0.3 )

TEMP_04=CREA_CHAMP(  OPERATION='EXTR', TYPE_CHAM='NOEU_TEMP_R',
NOM_CHAM='TEMP', RESULTAT=TEMPE, INST=0.4 )

TEMP_05=CREA_CHAMP(  OPERATION='EXTR', TYPE_CHAM='NOEU_TEMP_R',
NOM_CHAM='TEMP', RESULTAT=TEMPE, INST=0.5 )

TEMP_06=CREA_CHAMP(  OPERATION='EXTR', TYPE_CHAM='NOEU_TEMP_R',
NOM_CHAM='TEMP', RESULTAT=TEMPE, INST=0.6 )

TEMP_07=CREA_CHAMP(  OPERATION='EXTR', TYPE_CHAM='NOEU_TEMP_R',
NOM_CHAM='TEMP', RESULTAT=TEMPE, INST=0.7 )

TEMP_08=CREA_CHAMP(  OPERATION='EXTR', TYPE_CHAM='NOEU_TEMP_R',
NOM_CHAM='TEMP', RESULTAT=TEMPE, INST=0.8 )

TEMP_09=CREA_CHAMP(  OPERATION='EXTR', TYPE_CHAM='NOEU_TEMP_R',
NOM_CHAM='TEMP', RESULTAT=TEMPE, INST=0.9 )

TEMP_10=CREA_CHAMP(  OPERATION='EXTR', TYPE_CHAM='NOEU_TEMP_R',
NOM_CHAM='TEMP', RESULTAT=TEMPE, INST=1.0 )

TEST_RESU(CHAM_NO=(_F(NOEUD='N1',
                      NOM_CMP='TEMP',
                      PRECISION=1.E-2,
                      CHAM_GD=TEMP_01,
                      VALE_CALC=0.329640151,
                      VALE_REFE=0.33000000000000002,
                      REFERENCE='NON_DEFINI',),
                   _F(NOEUD='N1',
                      CRITERE='ABSOLU',
                      NOM_CMP='TEMP',
                      PRECISION=5.0000000000000001E-3,
                      CHAM_GD=TEMP_01,
                      VALE_CALC=0.329640151,
                      VALE_REFE=0.33000000000000002,
                      REFERENCE='NON_DEFINI',),
                   _F(NOEUD='N2',
                      NOM_CMP='TEMP',
                      PRECISION=1.E-2,
                      CHAM_GD=TEMP_01,
                      VALE_CALC=0.329721806,
                      VALE_REFE=0.33000000000000002,
                      REFERENCE='NON_DEFINI',),
                   _F(NOEUD='N2',
                      CRITERE='ABSOLU',
                      NOM_CMP='TEMP',
                      PRECISION=5.0000000000000001E-3,
                      CHAM_GD=TEMP_01,
                      VALE_CALC=0.329721806,
                      VALE_REFE=0.33000000000000002,
                      REFERENCE='NON_DEFINI',),
                   _F(NOEUD='N7',
                      NOM_CMP='TEMP',
                      PRECISION=1.E-2,
                      CHAM_GD=TEMP_01,
                      VALE_CALC=0.329928327,
                      VALE_REFE=0.33000000000000002,
                      REFERENCE='NON_DEFINI',),
                   _F(NOEUD='N7',
                      CRITERE='ABSOLU',
                      NOM_CMP='TEMP',
                      PRECISION=5.0000000000000001E-3,
                      CHAM_GD=TEMP_01,
                      VALE_CALC=0.329928327,
                      VALE_REFE=0.33000000000000002,
                      REFERENCE='NON_DEFINI',),
                   _F(NOEUD='N8',
                      NOM_CMP='TEMP',
                      PRECISION=1.E-2,
                      CHAM_GD=TEMP_01,
                      VALE_CALC=0.329750626,
                      VALE_REFE=0.33000000000000002,
                      REFERENCE='NON_DEFINI',),
                   _F(NOEUD='N8',
                      CRITERE='ABSOLU',
                      NOM_CMP='TEMP',
                      PRECISION=5.0000000000000001E-3,
                      CHAM_GD=TEMP_01,
                      VALE_CALC=0.329750626,
                      VALE_REFE=0.33000000000000002,
                      REFERENCE='NON_DEFINI',),
                   _F(NOEUD='N3',
                      NOM_CMP='TEMP',
                      PRECISION=1.E-2,
                      CHAM_GD=TEMP_01,
                      VALE_CALC=0.328461874,
                      VALE_REFE=0.33000000000000002,
                      REFERENCE='NON_DEFINI',),
                   _F(NOEUD='N3',
                      CRITERE='ABSOLU',
                      NOM_CMP='TEMP',
                      PRECISION=5.0000000000000001E-3,
                      CHAM_GD=TEMP_01,
                      VALE_CALC=0.328461874,
                      VALE_REFE=0.33000000000000002,
                      REFERENCE='NON_DEFINI',),
                   _F(NOEUD='N5',
                      NOM_CMP='TEMP',
                      PRECISION=1.E-2,
                      CHAM_GD=TEMP_01,
                      VALE_CALC=0.328399569,
                      VALE_REFE=0.33000000000000002,
                      REFERENCE='NON_DEFINI',),
                   _F(NOEUD='N5',
                      CRITERE='ABSOLU',
                      NOM_CMP='TEMP',
                      PRECISION=5.0000000000000001E-3,
                      CHAM_GD=TEMP_01,
                      VALE_CALC=0.328399569,
                      VALE_REFE=0.33000000000000002,
                      REFERENCE='NON_DEFINI',),
                   _F(NOEUD='N9',
                      NOM_CMP='TEMP',
                      PRECISION=1.E-2,
                      CHAM_GD=TEMP_01,
                      VALE_CALC=0.328689662,
                      VALE_REFE=0.33000000000000002,
                      REFERENCE='NON_DEFINI',),
                   _F(NOEUD='N9',
                      CRITERE='ABSOLU',
                      NOM_CMP='TEMP',
                      PRECISION=5.0000000000000001E-3,
                      CHAM_GD=TEMP_01,
                      VALE_CALC=0.328689662,
                      VALE_REFE=0.33000000000000002,
                      REFERENCE='NON_DEFINI',),
                   _F(NOEUD='N6',
                      NOM_CMP='TEMP',
                      PRECISION=1.E-2,
                      CHAM_GD=TEMP_01,
                      VALE_CALC=0.328549221,
                      VALE_REFE=0.33000000000000002,
                      REFERENCE='NON_DEFINI',),
                   _F(NOEUD='N6',
                      CRITERE='ABSOLU',
                      NOM_CMP='TEMP',
                      PRECISION=5.0000000000000001E-3,
                      CHAM_GD=TEMP_01,
                      VALE_CALC=0.328549221,
                      VALE_REFE=0.33000000000000002,
                      REFERENCE='NON_DEFINI',),
                   _F(NOEUD='N4',
                      NOM_CMP='TEMP',
                      PRECISION=1.E-2,
                      CHAM_GD=TEMP_01,
                      VALE_CALC=0.329608464,
                      VALE_REFE=0.33000000000000002,
                      REFERENCE='NON_DEFINI',),
                   _F(NOEUD='N4',
                      CRITERE='ABSOLU',
                      NOM_CMP='TEMP',
                      PRECISION=5.0000000000000001E-3,
                      CHAM_GD=TEMP_01,
                      VALE_CALC=0.329608464,
                      VALE_REFE=0.33000000000000002,
                      REFERENCE='NON_DEFINI',),
                   _F(NOEUD='N103',
                      NOM_CMP='TEMP',
                      PRECISION=0.070000000000000007,
                      CHAM_GD=TEMP_01,
                      VALE_CALC= 4.21293997E-03,
                      VALE_REFE=3.9399999999999999E-3,
                      REFERENCE='NON_DEFINI',),
                   _F(NOEUD='N103',
                      CRITERE='ABSOLU',
                      NOM_CMP='TEMP',
                      PRECISION=5.0000000000000001E-3,
                      CHAM_GD=TEMP_01,
                      VALE_CALC= 4.21293997E-03,
                      VALE_REFE=3.9399999999999999E-3,
                      REFERENCE='NON_DEFINI',),
                   _F(NOEUD='N104',
                      NOM_CMP='TEMP',
                      PRECISION=0.059999999999999998,
                      CHAM_GD=TEMP_01,
                      VALE_CALC= 4.16667149E-03,
                      VALE_REFE=3.9399999999999999E-3,
                      REFERENCE='NON_DEFINI',),
                   _F(NOEUD='N104',
                      CRITERE='ABSOLU',
                      NOM_CMP='TEMP',
                      PRECISION=5.0000000000000001E-3,
                      CHAM_GD=TEMP_01,
                      VALE_CALC= 4.16667149E-03,
                      VALE_REFE=3.9399999999999999E-3,
                      REFERENCE='NON_DEFINI',),
                   _F(NOEUD='N107',
                      NOM_CMP='TEMP',
                      PRECISION=0.080000000000000002,
                      CHAM_GD=TEMP_01,
                      VALE_CALC= 4.23233519E-03,
                      VALE_REFE=3.9399999999999999E-3,
                      REFERENCE='NON_DEFINI',),
                   _F(NOEUD='N107',
                      CRITERE='ABSOLU',
                      NOM_CMP='TEMP',
                      PRECISION=5.0000000000000001E-3,
                      CHAM_GD=TEMP_01,
                      VALE_CALC= 4.23233519E-03,
                      VALE_REFE=3.9399999999999999E-3,
                      REFERENCE='NON_DEFINI',),
                   _F(NOEUD='N106',
                      NOM_CMP='TEMP',
                      PRECISION=0.059999999999999998,
                      CHAM_GD=TEMP_01,
                      VALE_CALC= 4.16929034E-03,
                      VALE_REFE=3.9399999999999999E-3,
                      REFERENCE='NON_DEFINI',),
                   _F(NOEUD='N106',
                      CRITERE='ABSOLU',
                      NOM_CMP='TEMP',
                      PRECISION=5.0000000000000001E-3,
                      CHAM_GD=TEMP_01,
                      VALE_CALC= 4.16929034E-03,
                      VALE_REFE=3.9399999999999999E-3,
                      REFERENCE='NON_DEFINI',),
                   _F(NOEUD='N105',
                      NOM_CMP='TEMP',
                      PRECISION=0.050000000000000003,
                      CHAM_GD=TEMP_01,
                      VALE_CALC= 4.12165133E-03,
                      VALE_REFE=3.9399999999999999E-3,
                      REFERENCE='NON_DEFINI',),
                   _F(NOEUD='N105',
                      CRITERE='ABSOLU',
                      NOM_CMP='TEMP',
                      PRECISION=5.0000000000000001E-3,
                      CHAM_GD=TEMP_01,
                      VALE_CALC= 4.12165133E-03,
                      VALE_REFE=3.9399999999999999E-3,
                      REFERENCE='NON_DEFINI',),
                   _F(NOEUD='N108',
                      NOM_CMP='TEMP',
                      PRECISION=0.040000000000000001,
                      CHAM_GD=TEMP_01,
                      VALE_CALC= 4.09283772E-03,
                      VALE_REFE=3.9399999999999999E-3,
                      REFERENCE='NON_DEFINI',),
                   _F(NOEUD='N108',
                      CRITERE='ABSOLU',
                      NOM_CMP='TEMP',
                      PRECISION=5.0000000000000001E-3,
                      CHAM_GD=TEMP_01,
                      VALE_CALC= 4.09283772E-03,
                      VALE_REFE=3.9399999999999999E-3,
                      REFERENCE='NON_DEFINI',),
                   _F(NOEUD='N1',
                      NOM_CMP='TEMP',
                      PRECISION=1.E-2,
                      CHAM_GD=TEMP_02,
                      VALE_CALC=0.452526183,
                      VALE_REFE=0.45300000000000001,
                      REFERENCE='NON_DEFINI',),
                   _F(NOEUD='N1',
                      CRITERE='ABSOLU',
                      NOM_CMP='TEMP',
                      PRECISION=5.0000000000000001E-3,
                      CHAM_GD=TEMP_02,
                      VALE_CALC=0.452526183,
                      VALE_REFE=0.45300000000000001,
                      REFERENCE='NON_DEFINI',),
                   _F(NOEUD='N103',
                      NOM_CMP='TEMP',
                      PRECISION=1.E-2,
                      CHAM_GD=TEMP_02,
                      VALE_CALC=0.030531722,
                      VALE_REFE=0.030499999999999999,
                      REFERENCE='NON_DEFINI',),
                   _F(NOEUD='N103',
                      CRITERE='ABSOLU',
                      NOM_CMP='TEMP',
                      PRECISION=5.0000000000000001E-3,
                      CHAM_GD=TEMP_02,
                      VALE_CALC=0.030531722,
                      VALE_REFE=0.030499999999999999,
                      REFERENCE='NON_DEFINI',),
                   _F(NOEUD='N1',
                      NOM_CMP='TEMP',
                      PRECISION=1.E-2,
                      CHAM_GD=TEMP_03,
                      VALE_CALC=0.543225000,
                      VALE_REFE=0.54400000000000004,
                      REFERENCE='NON_DEFINI',),
                   _F(NOEUD='N1',
                      CRITERE='ABSOLU',
                      NOM_CMP='TEMP',
                      PRECISION=5.0000000000000001E-3,
                      CHAM_GD=TEMP_03,
                      VALE_CALC=0.543225000,
                      VALE_REFE=0.54400000000000004,
                      REFERENCE='NON_DEFINI',),
                   _F(NOEUD='N2',
                      NOM_CMP='TEMP',
                      PRECISION=1.E-2,
                      CHAM_GD=TEMP_03,
                      VALE_CALC=0.543250747,
                      VALE_REFE=0.54400000000000004,
                      REFERENCE='NON_DEFINI',),
                   _F(NOEUD='N2',
                      CRITERE='ABSOLU',
                      NOM_CMP='TEMP',
                      PRECISION=5.0000000000000001E-3,
                      CHAM_GD=TEMP_03,
                      VALE_CALC=0.543250747,
                      VALE_REFE=0.54400000000000004,
                      REFERENCE='NON_DEFINI',),
                   _F(NOEUD='N7',
                      NOM_CMP='TEMP',
                      PRECISION=1.E-2,
                      CHAM_GD=TEMP_03,
                      VALE_CALC=0.543353401,
                      VALE_REFE=0.54400000000000004,
                      REFERENCE='NON_DEFINI',),
                   _F(NOEUD='N7',
                      CRITERE='ABSOLU',
                      NOM_CMP='TEMP',
                      PRECISION=5.0000000000000001E-3,
                      CHAM_GD=TEMP_03,
                      VALE_CALC=0.543353401,
                      VALE_REFE=0.54400000000000004,
                      REFERENCE='NON_DEFINI',),
                   _F(NOEUD='N8',
                      NOM_CMP='TEMP',
                      PRECISION=1.E-2,
                      CHAM_GD=TEMP_03,
                      VALE_CALC=0.543263606,
                      VALE_REFE=0.54400000000000004,
                      REFERENCE='NON_DEFINI',),
                   _F(NOEUD='N8',
                      CRITERE='ABSOLU',
                      NOM_CMP='TEMP',
                      PRECISION=5.0000000000000001E-3,
                      CHAM_GD=TEMP_03,
                      VALE_CALC=0.543263606,
                      VALE_REFE=0.54400000000000004,
                      REFERENCE='NON_DEFINI',),
                   _F(NOEUD='N3',
                      NOM_CMP='TEMP',
                      PRECISION=1.E-2,
                      CHAM_GD=TEMP_03,
                      VALE_CALC=0.542664056,
                      VALE_REFE=0.54400000000000004,
                      REFERENCE='NON_DEFINI',),
                   _F(NOEUD='N3',
                      CRITERE='ABSOLU',
                      NOM_CMP='TEMP',
                      PRECISION=5.0000000000000001E-3,
                      CHAM_GD=TEMP_03,
                      VALE_CALC=0.542664056,
                      VALE_REFE=0.54400000000000004,
                      REFERENCE='NON_DEFINI',),
                   _F(NOEUD='N5',
                      NOM_CMP='TEMP',
                      PRECISION=1.E-2,
                      CHAM_GD=TEMP_03,
                      VALE_CALC=0.542634732,
                      VALE_REFE=0.54400000000000004,
                      REFERENCE='NON_DEFINI',),
                   _F(NOEUD='N5',
                      CRITERE='ABSOLU',
                      NOM_CMP='TEMP',
                      PRECISION=5.0000000000000001E-3,
                      CHAM_GD=TEMP_03,
                      VALE_CALC=0.542634732,
                      VALE_REFE=0.54400000000000004,
                      REFERENCE='NON_DEFINI',),
                   _F(NOEUD='N9',
                      NOM_CMP='TEMP',
                      PRECISION=1.E-2,
                      CHAM_GD=TEMP_03,
                      VALE_CALC=0.542772047,
                      VALE_REFE=0.54400000000000004,
                      REFERENCE='NON_DEFINI',),
                   _F(NOEUD='N9',
                      CRITERE='ABSOLU',
                      NOM_CMP='TEMP',
                      PRECISION=5.0000000000000001E-3,
                      CHAM_GD=TEMP_03,
                      VALE_CALC=0.542772047,
                      VALE_REFE=0.54400000000000004,
                      REFERENCE='NON_DEFINI',),
                   _F(NOEUD='N6',
                      NOM_CMP='TEMP',
                      PRECISION=1.E-2,
                      CHAM_GD=TEMP_03,
                      VALE_CALC=0.542707395,
                      VALE_REFE=0.54400000000000004,
                      REFERENCE='NON_DEFINI',),
                   _F(NOEUD='N6',
                      CRITERE='ABSOLU',
                      NOM_CMP='TEMP',
                      PRECISION=5.0000000000000001E-3,
                      CHAM_GD=TEMP_03,
                      VALE_CALC=0.542707395,
                      VALE_REFE=0.54400000000000004,
                      REFERENCE='NON_DEFINI',),
                   _F(NOEUD='N4',
                      NOM_CMP='TEMP',
                      PRECISION=1.E-2,
                      CHAM_GD=TEMP_03,
                      VALE_CALC=0.543197412,
                      VALE_REFE=0.54400000000000004,
                      REFERENCE='NON_DEFINI',),
                   _F(NOEUD='N4',
                      CRITERE='ABSOLU',
                      NOM_CMP='TEMP',
                      PRECISION=5.0000000000000001E-3,
                      CHAM_GD=TEMP_03,
                      VALE_CALC=0.543197412,
                      VALE_REFE=0.54400000000000004,
                      REFERENCE='NON_DEFINI',),
                   _F(NOEUD='N103',
                      NOM_CMP='TEMP',
                      PRECISION=1.E-2,
                      CHAM_GD=TEMP_03,
                      VALE_CALC=0.070625889,
                      VALE_REFE=0.070599999999999996,
                      REFERENCE='NON_DEFINI',),
                   _F(NOEUD='N103',
                      CRITERE='ABSOLU',
                      NOM_CMP='TEMP',
                      PRECISION=5.0000000000000001E-3,
                      CHAM_GD=TEMP_03,
                      VALE_CALC=0.070625889,
                      VALE_REFE=0.070599999999999996,
                      REFERENCE='NON_DEFINI',),
                   _F(NOEUD='N104',
                      NOM_CMP='TEMP',
                      PRECISION=1.E-2,
                      CHAM_GD=TEMP_03,
                      VALE_CALC=0.070518277,
                      VALE_REFE=0.070599999999999996,
                      REFERENCE='NON_DEFINI',),
                   _F(NOEUD='N104',
                      CRITERE='ABSOLU',
                      NOM_CMP='TEMP',
                      PRECISION=5.0000000000000001E-3,
                      CHAM_GD=TEMP_03,
                      VALE_CALC=0.070518277,
                      VALE_REFE=0.070599999999999996,
                      REFERENCE='NON_DEFINI',),
                   _F(NOEUD='N107',
                      NOM_CMP='TEMP',
                      PRECISION=1.E-2,
                      CHAM_GD=TEMP_03,
                      VALE_CALC=0.070698701,
                      VALE_REFE=0.070599999999999996,
                      REFERENCE='NON_DEFINI',),
                   _F(NOEUD='N107',
                      CRITERE='ABSOLU',
                      NOM_CMP='TEMP',
                      PRECISION=5.0000000000000001E-3,
                      CHAM_GD=TEMP_03,
                      VALE_CALC=0.070698701,
                      VALE_REFE=0.070599999999999996,
                      REFERENCE='NON_DEFINI',),
                   _F(NOEUD='N106',
                      NOM_CMP='TEMP',
                      PRECISION=1.E-2,
                      CHAM_GD=TEMP_03,
                      VALE_CALC=0.070508181,
                      VALE_REFE=0.070599999999999996,
                      REFERENCE='NON_DEFINI',),
                   _F(NOEUD='N106',
                      CRITERE='ABSOLU',
                      NOM_CMP='TEMP',
                      PRECISION=5.0000000000000001E-3,
                      CHAM_GD=TEMP_03,
                      VALE_CALC=0.070508181,
                      VALE_REFE=0.070599999999999996,
                      REFERENCE='NON_DEFINI',),
                   _F(NOEUD='N105',
                      NOM_CMP='TEMP',
                      PRECISION=0.02,
                      CHAM_GD=TEMP_03,
                      VALE_CALC=0.070364785,
                      VALE_REFE=0.070599999999999996,
                      REFERENCE='NON_DEFINI',),
                   _F(NOEUD='N105',
                      CRITERE='ABSOLU',
                      NOM_CMP='TEMP',
                      PRECISION=5.0000000000000001E-3,
                      CHAM_GD=TEMP_03,
                      VALE_CALC=0.070364785,
                      VALE_REFE=0.070599999999999996,
                      REFERENCE='NON_DEFINI',),
                   _F(NOEUD='N108',
                      NOM_CMP='TEMP',
                      PRECISION=0.02,
                      CHAM_GD=TEMP_03,
                      VALE_CALC=0.069936670,
                      VALE_REFE=0.070599999999999996,
                      REFERENCE='NON_DEFINI',),
                   _F(NOEUD='N108',
                      CRITERE='ABSOLU',
                      NOM_CMP='TEMP',
                      PRECISION=5.0000000000000001E-3,
                      CHAM_GD=TEMP_03,
                      VALE_CALC=0.069936670,
                      VALE_REFE=0.070599999999999996,
                      REFERENCE='NON_DEFINI',),
                   _F(NOEUD='N1',
                      NOM_CMP='TEMP',
                      PRECISION=1.E-2,
                      CHAM_GD=TEMP_04,
                      VALE_CALC=0.617333541,
                      VALE_REFE=0.61799999999999999,
                      REFERENCE='NON_DEFINI',),
                   _F(NOEUD='N1',
                      CRITERE='ABSOLU',
                      NOM_CMP='TEMP',
                      PRECISION=5.0000000000000001E-3,
                      CHAM_GD=TEMP_04,
                      VALE_CALC=0.617333541,
                      VALE_REFE=0.61799999999999999,
                      REFERENCE='NON_DEFINI',),
                   _F(NOEUD='N103',
                      NOM_CMP='TEMP',
                      PRECISION=1.E-2,
                      CHAM_GD=TEMP_04,
                      VALE_CALC=0.115212349,
                      VALE_REFE=0.115,
                      REFERENCE='NON_DEFINI',),
                   _F(NOEUD='N103',
                      CRITERE='ABSOLU',
                      NOM_CMP='TEMP',
                      PRECISION=5.0000000000000001E-3,
                      CHAM_GD=TEMP_04,
                      VALE_CALC=0.115212349,
                      VALE_REFE=0.115,
                      REFERENCE='NON_DEFINI',),
                   _F(NOEUD='N1',
                      NOM_CMP='TEMP',
                      PRECISION=1.E-2,
                      CHAM_GD=TEMP_05,
                      VALE_CALC=0.680978862,
                      VALE_REFE=0.68200000000000005,
                      REFERENCE='NON_DEFINI',),
                   _F(NOEUD='N1',
                      CRITERE='ABSOLU',
                      NOM_CMP='TEMP',
                      PRECISION=5.0000000000000001E-3,
                      CHAM_GD=TEMP_05,
                      VALE_CALC=0.680978862,
                      VALE_REFE=0.68200000000000005,
                      REFERENCE='NON_DEFINI',),
                   _F(NOEUD='N2',
                      NOM_CMP='TEMP',
                      PRECISION=1.E-2,
                      CHAM_GD=TEMP_05,
                      VALE_CALC=0.680990851,
                      VALE_REFE=0.68200000000000005,
                      REFERENCE='NON_DEFINI',),
                   _F(NOEUD='N2',
                      CRITERE='ABSOLU',
                      NOM_CMP='TEMP',
                      PRECISION=5.0000000000000001E-3,
                      CHAM_GD=TEMP_05,
                      VALE_CALC=0.680990851,
                      VALE_REFE=0.68200000000000005,
                      REFERENCE='NON_DEFINI',),
                   _F(NOEUD='N7',
                      NOM_CMP='TEMP',
                      PRECISION=1.E-2,
                      CHAM_GD=TEMP_05,
                      VALE_CALC=0.681062317,
                      VALE_REFE=0.68200000000000005,
                      REFERENCE='NON_DEFINI',),
                   _F(NOEUD='N7',
                      CRITERE='ABSOLU',
                      NOM_CMP='TEMP',
                      PRECISION=5.0000000000000001E-3,
                      CHAM_GD=TEMP_05,
                      VALE_CALC=0.681062317,
                      VALE_REFE=0.68200000000000005,
                      REFERENCE='NON_DEFINI',),
                   _F(NOEUD='N8',
                      NOM_CMP='TEMP',
                      PRECISION=1.E-2,
                      CHAM_GD=TEMP_05,
                      VALE_CALC=0.680998906,
                      VALE_REFE=0.68200000000000005,
                      REFERENCE='NON_DEFINI',),
                   _F(NOEUD='N8',
                      CRITERE='ABSOLU',
                      NOM_CMP='TEMP',
                      PRECISION=5.0000000000000001E-3,
                      CHAM_GD=TEMP_05,
                      VALE_CALC=0.680998906,
                      VALE_REFE=0.68200000000000005,
                      REFERENCE='NON_DEFINI',),
                   _F(NOEUD='N3',
                      NOM_CMP='TEMP',
                      PRECISION=1.E-2,
                      CHAM_GD=TEMP_05,
                      VALE_CALC=0.680597145,
                      VALE_REFE=0.68200000000000005,
                      REFERENCE='NON_DEFINI',),
                   _F(NOEUD='N3',
                      CRITERE='ABSOLU',
                      NOM_CMP='TEMP',
                      PRECISION=5.0000000000000001E-3,
                      CHAM_GD=TEMP_05,
                      VALE_CALC=0.680597145,
                      VALE_REFE=0.68200000000000005,
                      REFERENCE='NON_DEFINI',),
                   _F(NOEUD='N5',
                      NOM_CMP='TEMP',
                      PRECISION=1.E-2,
                      CHAM_GD=TEMP_05,
                      VALE_CALC=0.680575878,
                      VALE_REFE=0.68200000000000005,
                      REFERENCE='NON_DEFINI',),
                   _F(NOEUD='N5',
                      CRITERE='ABSOLU',
                      NOM_CMP='TEMP',
                      PRECISION=5.0000000000000001E-3,
                      CHAM_GD=TEMP_05,
                      VALE_CALC=0.680575878,
                      VALE_REFE=0.68200000000000005,
                      REFERENCE='NON_DEFINI',),
                   _F(NOEUD='N9',
                      NOM_CMP='TEMP',
                      PRECISION=1.E-2,
                      CHAM_GD=TEMP_05,
                      VALE_CALC=0.680669447,
                      VALE_REFE=0.68200000000000005,
                      REFERENCE='NON_DEFINI',),
                   _F(NOEUD='N9',
                      CRITERE='ABSOLU',
                      NOM_CMP='TEMP',
                      PRECISION=5.0000000000000001E-3,
                      CHAM_GD=TEMP_05,
                      VALE_CALC=0.680669447,
                      VALE_REFE=0.68200000000000005,
                      REFERENCE='NON_DEFINI',),
                   _F(NOEUD='N6',
                      NOM_CMP='TEMP',
                      PRECISION=1.E-2,
                      CHAM_GD=TEMP_05,
                      VALE_CALC=0.680626911,
                      VALE_REFE=0.68200000000000005,
                      REFERENCE='NON_DEFINI',),
                   _F(NOEUD='N6',
                      CRITERE='ABSOLU',
                      NOM_CMP='TEMP',
                      PRECISION=5.0000000000000001E-3,
                      CHAM_GD=TEMP_05,
                      VALE_CALC=0.680626911,
                      VALE_REFE=0.68200000000000005,
                      REFERENCE='NON_DEFINI',),
                   _F(NOEUD='N4',
                      NOM_CMP='TEMP',
                      PRECISION=1.E-2,
                      CHAM_GD=TEMP_05,
                      VALE_CALC=0.680954245,
                      VALE_REFE=0.68200000000000005,
                      REFERENCE='NON_DEFINI',),
                   _F(NOEUD='N4',
                      CRITERE='ABSOLU',
                      NOM_CMP='TEMP',
                      PRECISION=5.0000000000000001E-3,
                      CHAM_GD=TEMP_05,
                      VALE_CALC=0.680954245,
                      VALE_REFE=0.68200000000000005,
                      REFERENCE='NON_DEFINI',),
                   _F(NOEUD='N103',
                      NOM_CMP='TEMP',
                      PRECISION=1.E-2,
                      CHAM_GD=TEMP_05,
                      VALE_CALC=0.160810136,
                      VALE_REFE=0.16,
                      REFERENCE='NON_DEFINI',),
                   _F(NOEUD='N103',
                      CRITERE='ABSOLU',
                      NOM_CMP='TEMP',
                      PRECISION=5.0000000000000001E-3,
                      CHAM_GD=TEMP_05,
                      VALE_CALC=0.160810136,
                      VALE_REFE=0.16,
                      REFERENCE='NON_DEFINI',),
                   _F(NOEUD='N104',
                      NOM_CMP='TEMP',
                      PRECISION=1.E-2,
                      CHAM_GD=TEMP_05,
                      VALE_CALC=0.160710772,
                      VALE_REFE=0.16,
                      REFERENCE='NON_DEFINI',),
                   _F(NOEUD='N104',
                      CRITERE='ABSOLU',
                      NOM_CMP='TEMP',
                      PRECISION=5.0000000000000001E-3,
                      CHAM_GD=TEMP_05,
                      VALE_CALC=0.160710772,
                      VALE_REFE=0.16,
                      REFERENCE='NON_DEFINI',),
                   _F(NOEUD='N107',
                      NOM_CMP='TEMP',
                      PRECISION=1.E-2,
                      CHAM_GD=TEMP_05,
                      VALE_CALC=0.160887189,
                      VALE_REFE=0.16,
                      REFERENCE='NON_DEFINI',),
                   _F(NOEUD='N107',
                      CRITERE='ABSOLU',
                      NOM_CMP='TEMP',
                      PRECISION=5.0000000000000001E-3,
                      CHAM_GD=TEMP_05,
                      VALE_CALC=0.160887189,
                      VALE_REFE=0.16,
                      REFERENCE='NON_DEFINI',),
                   _F(NOEUD='N106',
                      NOM_CMP='TEMP',
                      PRECISION=1.E-2,
                      CHAM_GD=TEMP_05,
                      VALE_CALC=0.160694928,
                      VALE_REFE=0.16,
                      REFERENCE='NON_DEFINI',),
                   _F(NOEUD='N106',
                      CRITERE='ABSOLU',
                      NOM_CMP='TEMP',
                      PRECISION=5.0000000000000001E-3,
                      CHAM_GD=TEMP_05,
                      VALE_CALC=0.160694928,
                      VALE_REFE=0.16,
                      REFERENCE='NON_DEFINI',),
                   _F(NOEUD='N105',
                      NOM_CMP='TEMP',
                      PRECISION=1.E-2,
                      CHAM_GD=TEMP_05,
                      VALE_CALC=0.160551020,
                      VALE_REFE=0.16,
                      REFERENCE='NON_DEFINI',),
                   _F(NOEUD='N105',
                      CRITERE='ABSOLU',
                      NOM_CMP='TEMP',
                      PRECISION=5.0000000000000001E-3,
                      CHAM_GD=TEMP_05,
                      VALE_CALC=0.160551020,
                      VALE_REFE=0.16,
                      REFERENCE='NON_DEFINI',),
                   _F(NOEUD='N108',
                      NOM_CMP='TEMP',
                      PRECISION=1.E-2,
                      CHAM_GD=TEMP_05,
                      VALE_CALC=0.159816965,
                      VALE_REFE=0.16,
                      REFERENCE='NON_DEFINI',),
                   _F(NOEUD='N108',
                      CRITERE='ABSOLU',
                      NOM_CMP='TEMP',
                      PRECISION=5.0000000000000001E-3,
                      CHAM_GD=TEMP_05,
                      VALE_CALC=0.159816965,
                      VALE_REFE=0.16,
                      REFERENCE='NON_DEFINI',),
                   _F(NOEUD='N1',
                      NOM_CMP='TEMP',
                      PRECISION=1.E-2,
                      CHAM_GD=TEMP_06,
                      VALE_CALC=0.737323492,
                      VALE_REFE=0.73799999999999999,
                      REFERENCE='NON_DEFINI',),
                   _F(NOEUD='N1',
                      CRITERE='ABSOLU',
                      NOM_CMP='TEMP',
                      PRECISION=5.0000000000000001E-3,
                      CHAM_GD=TEMP_06,
                      VALE_CALC=0.737323492,
                      VALE_REFE=0.73799999999999999,
                      REFERENCE='NON_DEFINI',),
                   _F(NOEUD='N103',
                      NOM_CMP='TEMP',
                      PRECISION=0.02,
                      CHAM_GD=TEMP_06,
                      VALE_CALC=0.206175853,
                      VALE_REFE=0.20399999999999999,
                      REFERENCE='NON_DEFINI',),
                   _F(NOEUD='N103',
                      CRITERE='ABSOLU',
                      NOM_CMP='TEMP',
                      PRECISION=5.0000000000000001E-3,
                      CHAM_GD=TEMP_06,
                      VALE_CALC=0.206175853,
                      VALE_REFE=0.20399999999999999,
                      REFERENCE='NON_DEFINI',),
                   _F(NOEUD='N1',
                      NOM_CMP='TEMP',
                      PRECISION=1.E-2,
                      CHAM_GD=TEMP_07,
                      VALE_CALC=0.788290113,
                      VALE_REFE=0.78900000000000003,
                      REFERENCE='NON_DEFINI',),
                   _F(NOEUD='N1',
                      CRITERE='ABSOLU',
                      NOM_CMP='TEMP',
                      PRECISION=5.0000000000000001E-3,
                      CHAM_GD=TEMP_07,
                      VALE_CALC=0.788290113,
                      VALE_REFE=0.78900000000000003,
                      REFERENCE='NON_DEFINI',),
                   _F(NOEUD='N2',
                      NOM_CMP='TEMP',
                      PRECISION=1.E-2,
                      CHAM_GD=TEMP_07,
                      VALE_CALC=0.788297742,
                      VALE_REFE=0.78900000000000003,
                      REFERENCE='NON_DEFINI',),
                   _F(NOEUD='N2',
                      CRITERE='ABSOLU',
                      NOM_CMP='TEMP',
                      PRECISION=5.0000000000000001E-3,
                      CHAM_GD=TEMP_07,
                      VALE_CALC=0.788297742,
                      VALE_REFE=0.78900000000000003,
                      REFERENCE='NON_DEFINI',),
                   _F(NOEUD='N7',
                      NOM_CMP='TEMP',
                      PRECISION=1.E-2,
                      CHAM_GD=TEMP_07,
                      VALE_CALC=0.788354541,
                      VALE_REFE=0.78900000000000003,
                      REFERENCE='NON_DEFINI',),
                   _F(NOEUD='N7',
                      CRITERE='ABSOLU',
                      NOM_CMP='TEMP',
                      PRECISION=5.0000000000000001E-3,
                      CHAM_GD=TEMP_07,
                      VALE_CALC=0.788354541,
                      VALE_REFE=0.78900000000000003,
                      REFERENCE='NON_DEFINI',),
                   _F(NOEUD='N8',
                      NOM_CMP='TEMP',
                      PRECISION=1.E-2,
                      CHAM_GD=TEMP_07,
                      VALE_CALC=0.788303859,
                      VALE_REFE=0.78900000000000003,
                      REFERENCE='NON_DEFINI',),
                   _F(NOEUD='N8',
                      CRITERE='ABSOLU',
                      NOM_CMP='TEMP',
                      PRECISION=5.0000000000000001E-3,
                      CHAM_GD=TEMP_07,
                      VALE_CALC=0.788303859,
                      VALE_REFE=0.78900000000000003,
                      REFERENCE='NON_DEFINI',),
                   _F(NOEUD='N3',
                      NOM_CMP='TEMP',
                      PRECISION=1.E-2,
                      CHAM_GD=TEMP_07,
                      VALE_CALC=0.787994109,
                      VALE_REFE=0.78900000000000003,
                      REFERENCE='NON_DEFINI',),
                   _F(NOEUD='N3',
                      CRITERE='ABSOLU',
                      NOM_CMP='TEMP',
                      PRECISION=5.0000000000000001E-3,
                      CHAM_GD=TEMP_07,
                      VALE_CALC=0.787994109,
                      VALE_REFE=0.78900000000000003,
                      REFERENCE='NON_DEFINI',),
                   _F(NOEUD='N5',
                      NOM_CMP='TEMP',
                      PRECISION=1.E-2,
                      CHAM_GD=TEMP_07,
                      VALE_CALC=0.787977648,
                      VALE_REFE=0.78900000000000003,
                      REFERENCE='NON_DEFINI',),
                   _F(NOEUD='N5',
                      CRITERE='ABSOLU',
                      NOM_CMP='TEMP',
                      PRECISION=5.0000000000000001E-3,
                      CHAM_GD=TEMP_07,
                      VALE_CALC=0.787977648,
                      VALE_REFE=0.78900000000000003,
                      REFERENCE='NON_DEFINI',),
                   _F(NOEUD='N9',
                      NOM_CMP='TEMP',
                      PRECISION=1.E-2,
                      CHAM_GD=TEMP_07,
                      VALE_CALC=0.788050584,
                      VALE_REFE=0.78900000000000003,
                      REFERENCE='NON_DEFINI',),
                   _F(NOEUD='N9',
                      CRITERE='ABSOLU',
                      NOM_CMP='TEMP',
                      PRECISION=5.0000000000000001E-3,
                      CHAM_GD=TEMP_07,
                      VALE_CALC=0.788050584,
                      VALE_REFE=0.78900000000000003,
                      REFERENCE='NON_DEFINI',),
                   _F(NOEUD='N6',
                      NOM_CMP='TEMP',
                      PRECISION=1.E-2,
                      CHAM_GD=TEMP_07,
                      VALE_CALC=0.788017488,
                      VALE_REFE=0.78900000000000003,
                      REFERENCE='NON_DEFINI',),
                   _F(NOEUD='N6',
                      CRITERE='ABSOLU',
                      NOM_CMP='TEMP',
                      PRECISION=5.0000000000000001E-3,
                      CHAM_GD=TEMP_07,
                      VALE_CALC=0.788017488,
                      VALE_REFE=0.78900000000000003,
                      REFERENCE='NON_DEFINI',),
                   _F(NOEUD='N4',
                      NOM_CMP='TEMP',
                      PRECISION=1.E-2,
                      CHAM_GD=TEMP_07,
                      VALE_CALC=0.788269692,
                      VALE_REFE=0.78900000000000003,
                      REFERENCE='NON_DEFINI',),
                   _F(NOEUD='N4',
                      CRITERE='ABSOLU',
                      NOM_CMP='TEMP',
                      PRECISION=5.0000000000000001E-3,
                      CHAM_GD=TEMP_07,
                      VALE_CALC=0.788269692,
                      VALE_REFE=0.78900000000000003,
                      REFERENCE='NON_DEFINI',),
                   _F(NOEUD='N103',
                      NOM_CMP='TEMP',
                      PRECISION=0.02,
                      CHAM_GD=TEMP_07,
                      VALE_CALC=0.250888196,
                      VALE_REFE=0.247,
                      REFERENCE='NON_DEFINI',),
                   _F(NOEUD='N103',
                      CRITERE='ABSOLU',
                      NOM_CMP='TEMP',
                      PRECISION=5.0000000000000001E-3,
                      CHAM_GD=TEMP_07,
                      VALE_CALC=0.250888196,
                      VALE_REFE=0.247,
                      REFERENCE='NON_DEFINI',),
                   _F(NOEUD='N104',
                      NOM_CMP='TEMP',
                      PRECISION=0.02,
                      CHAM_GD=TEMP_07,
                      VALE_CALC=0.250799524,
                      VALE_REFE=0.247,
                      REFERENCE='NON_DEFINI',),
                   _F(NOEUD='N104',
                      CRITERE='ABSOLU',
                      NOM_CMP='TEMP',
                      PRECISION=5.0000000000000001E-3,
                      CHAM_GD=TEMP_07,
                      VALE_CALC=0.250799524,
                      VALE_REFE=0.247,
                      REFERENCE='NON_DEFINI',),
                   _F(NOEUD='N107',
                      NOM_CMP='TEMP',
                      PRECISION=0.02,
                      CHAM_GD=TEMP_07,
                      VALE_CALC=0.250962552,
                      VALE_REFE=0.247,
                      REFERENCE='NON_DEFINI',),
                   _F(NOEUD='N107',
                      CRITERE='ABSOLU',
                      NOM_CMP='TEMP',
                      PRECISION=5.0000000000000001E-3,
                      CHAM_GD=TEMP_07,
                      VALE_CALC=0.250962552,
                      VALE_REFE=0.247,
                      REFERENCE='NON_DEFINI',),
                   _F(NOEUD='N106',
                      NOM_CMP='TEMP',
                      PRECISION=0.02,
                      CHAM_GD=TEMP_07,
                      VALE_CALC=0.250781609,
                      VALE_REFE=0.247,
                      REFERENCE='NON_DEFINI',),
                   _F(NOEUD='N106',
                      CRITERE='ABSOLU',
                      NOM_CMP='TEMP',
                      PRECISION=5.0000000000000001E-3,
                      CHAM_GD=TEMP_07,
                      VALE_CALC=0.250781609,
                      VALE_REFE=0.247,
                      REFERENCE='NON_DEFINI',),
                   _F(NOEUD='N105',
                      NOM_CMP='TEMP',
                      PRECISION=0.02,
                      CHAM_GD=TEMP_07,
                      VALE_CALC=0.250646837,
                      VALE_REFE=0.247,
                      REFERENCE='NON_DEFINI',),
                   _F(NOEUD='N105',
                      CRITERE='ABSOLU',
                      NOM_CMP='TEMP',
                      PRECISION=5.0000000000000001E-3,
                      CHAM_GD=TEMP_07,
                      VALE_CALC=0.250646837,
                      VALE_REFE=0.247,
                      REFERENCE='NON_DEFINI',),
                   _F(NOEUD='N108',
                      NOM_CMP='TEMP',
                      PRECISION=0.02,
                      CHAM_GD=TEMP_07,
                      VALE_CALC=0.249744045,
                      VALE_REFE=0.247,
                      REFERENCE='NON_DEFINI',),
                   _F(NOEUD='N108',
                      CRITERE='ABSOLU',
                      NOM_CMP='TEMP',
                      PRECISION=5.0000000000000001E-3,
                      CHAM_GD=TEMP_07,
                      VALE_CALC=0.249744045,
                      VALE_REFE=0.247,
                      REFERENCE='NON_DEFINI',),
                   _F(NOEUD='N1',
                      NOM_CMP='TEMP',
                      PRECISION=1.E-2,
                      CHAM_GD=TEMP_08,
                      VALE_CALC=0.835161876,
                      VALE_REFE=0.83499999999999996,
                      REFERENCE='NON_DEFINI',),
                   _F(NOEUD='N1',
                      CRITERE='ABSOLU',
                      NOM_CMP='TEMP',
                      PRECISION=5.0000000000000001E-3,
                      CHAM_GD=TEMP_08,
                      VALE_CALC=0.835161876,
                      VALE_REFE=0.83499999999999996,
                      REFERENCE='NON_DEFINI',),
                   _F(NOEUD='N103',
                      NOM_CMP='TEMP',
                      PRECISION=0.029999999999999999,
                      CHAM_GD=TEMP_08,
                      VALE_CALC=0.294825933,
                      VALE_REFE=0.28799999999999998,
                      REFERENCE='NON_DEFINI',),
                   _F(NOEUD='N103',
                      CRITERE='ABSOLU',
                      NOM_CMP='TEMP',
                      PRECISION=8.0000000000000002E-3,
                      CHAM_GD=TEMP_08,
                      VALE_CALC=0.294825933,
                      VALE_REFE=0.28799999999999998,
                      REFERENCE='NON_DEFINI',),
                   _F(NOEUD='N1',
                      NOM_CMP='TEMP',
                      PRECISION=1.E-2,
                      CHAM_GD=TEMP_09,
                      VALE_CALC=0.878848583,
                      VALE_REFE=0.878,
                      REFERENCE='NON_DEFINI',),
                   _F(NOEUD='N1',
                      CRITERE='ABSOLU',
                      NOM_CMP='TEMP',
                      PRECISION=5.0000000000000001E-3,
                      CHAM_GD=TEMP_09,
                      VALE_CALC=0.878848583,
                      VALE_REFE=0.878,
                      REFERENCE='NON_DEFINI',),
                   _F(NOEUD='N103',
                      NOM_CMP='TEMP',
                      PRECISION=0.040000000000000001,
                      CHAM_GD=TEMP_09,
                      VALE_CALC=0.337973096,
                      VALE_REFE=0.32800000000000001,
                      REFERENCE='NON_DEFINI',),
                   _F(NOEUD='N103',
                      CRITERE='ABSOLU',
                      NOM_CMP='TEMP',
                      PRECISION=0.010999999999999999,
                      CHAM_GD=TEMP_09,
                      VALE_CALC=0.337973096,
                      VALE_REFE=0.32800000000000001,
                      REFERENCE='NON_DEFINI',),
                   _F(NOEUD='N1',
                      NOM_CMP='TEMP',
                      PRECISION=1.E-2,
                      CHAM_GD=TEMP_10,
                      VALE_CALC=0.920029390,
                      VALE_REFE=0.91800000000000004,
                      REFERENCE='NON_DEFINI',),
                   _F(NOEUD='N1',
                      CRITERE='ABSOLU',
                      NOM_CMP='TEMP',
                      PRECISION=5.0000000000000001E-3,
                      CHAM_GD=TEMP_10,
                      VALE_CALC=0.920029390,
                      VALE_REFE=0.91800000000000004,
                      REFERENCE='NON_DEFINI',),
                   _F(NOEUD='N2',
                      NOM_CMP='TEMP',
                      PRECISION=1.E-2,
                      CHAM_GD=TEMP_10,
                      VALE_CALC=0.920034869,
                      VALE_REFE=0.91800000000000004,
                      REFERENCE='NON_DEFINI',),
                   _F(NOEUD='N2',
                      CRITERE='ABSOLU',
                      NOM_CMP='TEMP',
                      PRECISION=5.0000000000000001E-3,
                      CHAM_GD=TEMP_10,
                      VALE_CALC=0.920034869,
                      VALE_REFE=0.91800000000000004,
                      REFERENCE='NON_DEFINI',),
                   _F(NOEUD='N7',
                      NOM_CMP='TEMP',
                      PRECISION=1.E-2,
                      CHAM_GD=TEMP_10,
                      VALE_CALC=0.920079800,
                      VALE_REFE=0.91800000000000004,
                      REFERENCE='NON_DEFINI',),
                   _F(NOEUD='N7',
                      CRITERE='ABSOLU',
                      NOM_CMP='TEMP',
                      PRECISION=5.0000000000000001E-3,
                      CHAM_GD=TEMP_10,
                      VALE_CALC=0.920079800,
                      VALE_REFE=0.91800000000000004,
                      REFERENCE='NON_DEFINI',),
                   _F(NOEUD='N8',
                      NOM_CMP='TEMP',
                      PRECISION=1.E-2,
                      CHAM_GD=TEMP_10,
                      VALE_CALC=0.920039602,
                      VALE_REFE=0.91800000000000004,
                      REFERENCE='NON_DEFINI',),
                   _F(NOEUD='N8',
                      CRITERE='ABSOLU',
                      NOM_CMP='TEMP',
                      PRECISION=5.0000000000000001E-3,
                      CHAM_GD=TEMP_10,
                      VALE_CALC=0.920039602,
                      VALE_REFE=0.91800000000000004,
                      REFERENCE='NON_DEFINI',),
                   _F(NOEUD='N3',
                      NOM_CMP='TEMP',
                      PRECISION=1.E-2,
                      CHAM_GD=TEMP_10,
                      VALE_CALC=0.919795594,
                      VALE_REFE=0.91800000000000004,
                      REFERENCE='NON_DEFINI',),
                   _F(NOEUD='N3',
                      CRITERE='ABSOLU',
                      NOM_CMP='TEMP',
                      PRECISION=5.0000000000000001E-3,
                      CHAM_GD=TEMP_10,
                      VALE_CALC=0.919795594,
                      VALE_REFE=0.91800000000000004,
                      REFERENCE='NON_DEFINI',),
                   _F(NOEUD='N5',
                      NOM_CMP='TEMP',
                      PRECISION=1.E-2,
                      CHAM_GD=TEMP_10,
                      VALE_CALC=0.919782399,
                      VALE_REFE=0.91800000000000004,
                      REFERENCE='NON_DEFINI',),
                   _F(NOEUD='N5',
                      CRITERE='ABSOLU',
                      NOM_CMP='TEMP',
                      PRECISION=5.0000000000000001E-3,
                      CHAM_GD=TEMP_10,
                      VALE_CALC=0.919782399,
                      VALE_REFE=0.91800000000000004,
                      REFERENCE='NON_DEFINI',),
                   _F(NOEUD='N9',
                      NOM_CMP='TEMP',
                      PRECISION=1.E-2,
                      CHAM_GD=TEMP_10,
                      VALE_CALC=0.919839998,
                      VALE_REFE=0.91800000000000004,
                      REFERENCE='NON_DEFINI',),
                   _F(NOEUD='N9',
                      CRITERE='ABSOLU',
                      NOM_CMP='TEMP',
                      PRECISION=5.0000000000000001E-3,
                      CHAM_GD=TEMP_10,
                      VALE_CALC=0.919839998,
                      VALE_REFE=0.91800000000000004,
                      REFERENCE='NON_DEFINI',),
                   _F(NOEUD='N6',
                      NOM_CMP='TEMP',
                      PRECISION=1.E-2,
                      CHAM_GD=TEMP_10,
                      VALE_CALC=0.919814050,
                      VALE_REFE=0.91800000000000004,
                      REFERENCE='NON_DEFINI',),
                   _F(NOEUD='N6',
                      CRITERE='ABSOLU',
                      NOM_CMP='TEMP',
                      PRECISION=5.0000000000000001E-3,
                      CHAM_GD=TEMP_10,
                      VALE_CALC=0.919814050,
                      VALE_REFE=0.91800000000000004,
                      REFERENCE='NON_DEFINI',),
                   _F(NOEUD='N4',
                      NOM_CMP='TEMP',
                      PRECISION=1.E-2,
                      CHAM_GD=TEMP_10,
                      VALE_CALC=0.920012470,
                      VALE_REFE=0.91800000000000004,
                      REFERENCE='NON_DEFINI',),
                   _F(NOEUD='N4',
                      CRITERE='ABSOLU',
                      NOM_CMP='TEMP',
                      PRECISION=5.0000000000000001E-3,
                      CHAM_GD=TEMP_10,
                      VALE_CALC=0.920012470,
                      VALE_REFE=0.91800000000000004,
                      REFERENCE='NON_DEFINI',),
                   _F(NOEUD='N103',
                      NOM_CMP='TEMP',
                      PRECISION=0.040000000000000001,
                      CHAM_GD=TEMP_10,
                      VALE_CALC=0.380352152,
                      VALE_REFE=0.36599999999999999,
                      REFERENCE='NON_DEFINI',),
                   _F(NOEUD='N103',
                      CRITERE='ABSOLU',
                      NOM_CMP='TEMP',
                      PRECISION=0.02,
                      CHAM_GD=TEMP_10,
                      VALE_CALC=0.380352152,
                      VALE_REFE=0.36599999999999999,
                      REFERENCE='NON_DEFINI',),
                   _F(NOEUD='N104',
                      NOM_CMP='TEMP',
                      PRECISION=0.040000000000000001,
                      CHAM_GD=TEMP_10,
                      VALE_CALC=0.380273937,
                      VALE_REFE=0.36599999999999999,
                      REFERENCE='NON_DEFINI',),
                   _F(NOEUD='N104',
                      CRITERE='ABSOLU',
                      NOM_CMP='TEMP',
                      PRECISION=0.02,
                      CHAM_GD=TEMP_10,
                      VALE_CALC=0.380273937,
                      VALE_REFE=0.36599999999999999,
                      REFERENCE='NON_DEFINI',),
                   _F(NOEUD='N107',
                      NOM_CMP='TEMP',
                      PRECISION=0.040000000000000001,
                      CHAM_GD=TEMP_10,
                      VALE_CALC=0.380422483,
                      VALE_REFE=0.36599999999999999,
                      REFERENCE='NON_DEFINI',),
                   _F(NOEUD='N107',
                      CRITERE='ABSOLU',
                      NOM_CMP='TEMP',
                      PRECISION=0.02,
                      CHAM_GD=TEMP_10,
                      VALE_CALC=0.380422483,
                      VALE_REFE=0.36599999999999999,
                      REFERENCE='NON_DEFINI',),
                   _F(NOEUD='N106',
                      NOM_CMP='TEMP',
                      PRECISION=0.040000000000000001,
                      CHAM_GD=TEMP_10,
                      VALE_CALC=0.380255349,
                      VALE_REFE=0.36599999999999999,
                      REFERENCE='NON_DEFINI',),
                   _F(NOEUD='N106',
                      CRITERE='ABSOLU',
                      NOM_CMP='TEMP',
                      PRECISION=0.02,
                      CHAM_GD=TEMP_10,
                      VALE_CALC=0.380255349,
                      VALE_REFE=0.36599999999999999,
                      REFERENCE='NON_DEFINI',),
                   _F(NOEUD='N105',
                      NOM_CMP='TEMP',
                      PRECISION=0.040000000000000001,
                      CHAM_GD=TEMP_10,
                      VALE_CALC=0.380130755,
                      VALE_REFE=0.36599999999999999,
                      REFERENCE='NON_DEFINI',),
                   _F(NOEUD='N105',
                      CRITERE='ABSOLU',
                      NOM_CMP='TEMP',
                      PRECISION=0.02,
                      CHAM_GD=TEMP_10,
                      VALE_CALC=0.380130755,
                      VALE_REFE=0.36599999999999999,
                      REFERENCE='NON_DEFINI',),
                   _F(NOEUD='N108',
                      NOM_CMP='TEMP',
                      PRECISION=0.040000000000000001,
                      CHAM_GD=TEMP_10,
                      VALE_CALC=0.379122377,
                      VALE_REFE=0.36599999999999999,
                      REFERENCE='NON_DEFINI',),
                   _F(NOEUD='N108',
                      CRITERE='ABSOLU',
                      NOM_CMP='TEMP',
                      PRECISION=0.02,
                      CHAM_GD=TEMP_10,
                      VALE_CALC=0.379122377,
                      VALE_REFE=0.36599999999999999,
                      REFERENCE='NON_DEFINI',),
                   ),
          )

FIN()
#
#
