# MODIF  DATE 17/02/2009   AUTEUR SELLENET N.SELLENET 
# TITRE THERMIQUE AVEC FLUX NON LINEAIRE EN TRANSITOIRE 2D
# ttnl04a.para = tps_job 110 mem_job 50Mo ncpus 1 liste_test S
#            CONFIGURATION MANAGEMENT OF EDF VERSION
# ======================================================================
# COPYRIGHT (C) 1991 - 2001  EDF R&D                  WWW.CODE-ASTER.ORG
# THIS PROGRAM IS FREE SOFTWARE; YOU CAN REDISTRIBUTE IT AND/OR MODIFY
# IT UNDER THE TERMS OF THE GNU GENERAL PUBLIC LICENSE AS PUBLISHED BY
# THE FREE SOFTWARE FOUNDATION; EITHER VERSION 2 OF THE LICENSE, OR   
# (AT YOUR OPTION) ANY LATER VERSION.                                 
#
# THIS PROGRAM IS DISTRIBUTED IN THE HOPE THAT IT WILL BE USEFUL, BUT 
# WITHOUT ANY WARRANTY; WITHOUT EVEN THE IMPLIED WARRANTY OF          
# MERCHANTABILITY OR FITNESS FOR A PARTICULAR PURPOSE. SEE THE GNU    
# GENERAL PUBLIC LICENSE FOR MORE DETAILS.                            
#
# YOU SHOULD HAVE RECEIVED A COPY OF THE GNU GENERAL PUBLIC LICENSE   
# ALONG WITH THIS PROGRAM; IF NOT, WRITE TO EDF R&D CODE_ASTER,       
#    1 AVENUE DU GENERAL DE GAULLE, 92141 CLAMART CEDEX, FRANCE.      
# ======================================================================

DEBUT( CODE=_F( NOM = 'TTNL04A',NIV_PUB_WEB='INTERNET')
       )

MAIL=LIRE_MAILLAGE( )

MAIL=DEFI_GROUP(reuse=MAIL,         MAILLAGE=MAIL,CREA_GROUP_NO=(
                       _F(  GROUP_MA = 'LTH1'),
                       _F(  GROUP_MA = 'LTH2'),
                       _F(  GROUP_MA = 'LTH3'),
                       _F(  GROUP_MA = 'LRAY'),
# ON CREE LES GROUPES DE NOEUDS POUR LE REAJUSTAGE DE LA
# 2EME COUCHE ADBSSO2 ET POUR LE CALCUL DES FLUX LFLX.

                       _F(  NOM = 'ADBSSO2',
                         NOEUD = ( 'N179', 'N194', 'N195', 'N214',
                                       'N217', 'N220', 'N239', 'N242',
                                       'N261', 'N264', 'N281', 'N284',
                                       'N287', 'N297', 'N300', 'N303',
                                       'N310', 'N313', 'N319', 'N322',
                                       'N326', 'N329', 'N316', 'N315',
                                       'N299', 'N282', 'N283', 'N262',
                                       'N263', 'N240', 'N241', 'N215',
                                       'N216', 'N192', 'N193', 'N178', ))),CREA_GROUP_MA=(
                       _F(  NOM = 'LRAY_Q',
                                       MAILLE = ( 'M695', 'M696', 'M697',
                                                     'M698', 'M699', 'M700',
                                                    'M701', 'M702', 'M703', )),
                       _F(  NOM = 'LRAY_F',
                                       MAILLE = ( 'M704', 'M705', 'M706',
                                                     'M707', 'M708', 'M709',
                                                     'M710', )),
                       _F(  NOM = 'LRAY_Q2',
                                       MAILLE = ( 'M695', 'M696', 'M697',
                                                     'M698', 'M699', 'M700',
                                                     'M701', 'M702',  )),
                       _F(  NOM = 'LRAY_F2',
                                       MAILLE = ( 'M704', 'M705', 'M706',
                                                     'M707', 'M708', 'M709',
                                                     'M710', 'M703',  )))
                )

BEINOX=DEFI_FONCTION(        NOM_PARA='TEMP',
                                   VALE=( 0.00E+0,    0.000,
                                          7.00E+2,    2.979,
                                          1.37E+3,    6.232,
                                          1.40E+3,    8.184,
                                          1.45E+3,    8.444,  ),
                             PROL_DROITE='LINEAIRE',
                            PROL_GAUCHE='LINEAIRE'
                         )

LINOX=DEFI_FONCTION(        NOM_PARA='TEMP',
                                  VALE=(   20.0,      14.0E-3,
                                           50.0,      14.4E-3,
                                          100.0,      15.2E-3,
                                          150.0,      15.8E-3,
                                          200.0,      16.6E-3,
                                          250.0,      17.3E-3,
                                          300.0,      17.9E-3,
                                          350.0,      18.6E-3,
                                          400.0,      19.2E-3,
                                          450.0,      19.9E-3,
                                          500.0,      20.6E-3,
                                          550.0,      21.2E-3,
                                          600.0,      21.8E-3,
                                          650.0,      22.4E-3,
                                          700.0,      23.1E-3,
                                          750.0,      23.7E-3,
                                          800.0,      24.3E-3,
                                          900.0,      26.0E-3,
                                         1000.0,      27.3E-3,
                                         1200.0,      29.9E-3,
                                         1370.0,      32.2E-3,
                                         1400.0,      48.9E-3,  ),
                           PROL_DROITE='CONSTANT',
                          PROL_GAUCHE='CONSTANT'
                       )

QINOX=DEFI_FONCTION(     NOM_PARA='TEMP',
                               VALE=(   20.0,      -0.00E-3,
                                       100.0,      -1.76E-3,
                                       200.0,      -5.04E-3,
                                       300.0,      -9.80E-3,
                                       400.0,     -16.34E-3,
                                       500.0,     -25.92E-3,
                                       600.0,     -38.86E-3,
                                       700.0,     -56.44E-3,
                                       800.0,     -79.56E-3,
                                       900.0,     -10.82E-2,
                                      1000.0,     -14.60E-2,
                                      1100.0,     -19.22E-2,
                                      1200.0,     -24.78E-2,
                                      1300.0,     -31.74E-2,
                                      1400.0,     -39.88E-2,
                                      1500.0,     -49.73E-2,  ),
                           PROL_DROITE='LINEAIRE',
                          PROL_GAUCHE='LINEAIRE'
                       )

INOX=DEFI_MATERIAU(      THER_NL=_F(  BETA = BEINOX,  LAMBDA = LINOX)
                     )

IMAT=AFFE_MATERIAU(      MAILLAGE=MAIL,
                             AFFE=_F(  TOUT = 'OUI',
                                    MATER = INOX)
                       )

MOTH=AFFE_MODELE(       MAILLAGE=MAIL,
                            AFFE=_F(  TOUT = 'OUI',
                                   PHENOMENE = 'THERMIQUE',
                                   MODELISATION = 'PLAN')
                    )

TIMPO=DEFI_FONCTION(     NOM_RESU='TEMP',
                           NOM_PARA='INST',
                               VALE=(   0.0,      20.0,
                                        1.0,    1700.0,  ),
                           PROL_DROITE='CONSTANT',
                          PROL_GAUCHE='CONSTANT'
                       )

ZERO=DEFI_CONSTANTE(    VALE=0. )

TEXT=DEFI_CONSTANTE(    VALE=20.0 )

FMUL=DEFI_FONCTION(     NOM_PARA='INST',
                              VALE=( 0.0,   0.0,
                                     1.0,   1.0,
                                     3.2,   1.0, ),
                           PROL_DROITE='CONSTANT',
                          PROL_GAUCHE='CONSTANT'
                       )

FLUX_ARC=DEFI_FONCTION(    NOM_PARA='Y',
                                 VALE=( 3.5,   0.71,
                                        4.0,   0.93,
                                        4.5,   1.18,
                                        5.0,   1.42,
                                        5.5,   1.65,
                                        6.0,   1.84,
                                        6.5,   1.96,
                                        7.0,   2.00,
                                        7.5,   1.96,
                                        8.0,   1.84,
                                        8.5,   1.65,
                                        9.0,   1.42,
                                        9.5,   1.18,
                                       10.0,   0.93,
                                       10.5,   0.71,
                                       11.0,   0.51,
                                       11.5,   0.36,
                                       12.0,   0.24,
                                       12.5,   0.15,
                                       13.0,   0.09,
                                       13.5,   0.05,
                                       14.0,   0.03, ),
                              PROL_DROITE='LINEAIRE',
                             PROL_GAUCHE='EXCLU'
                           )

CHTH1=AFFE_CHAR_THER_F(        MODELE=MOTH,TEMP_IMPO=(
                             _F(  GROUP_NO = 'SSO1',
                                         TEMP = TIMPO),
                             _F(  GROUP_NO = 'LPO',
                                         TEMP = TEXT)),FLUX_NL=(
                               _F(  GROUP_MA = 'LSIN',
                                         FLUN = QINOX),
                               _F(  GROUP_MA = 'LSSU1',
                                         FLUN = QINOX),
                               _F(  GROUP_MA = 'LSSU2',
                                         FLUN = QINOX),
                               _F(  GROUP_MA = 'LRAY_Q',
                                         FLUN = QINOX)),LIAISON_GROUP=(
            _F(   GROUP_MA_1 = 'LS112',
                             GROUP_MA_2 = 'LW67',
                             DDL_1 = 'TEMP',
                             COEF_MULT_1 = 1.,
                             DDL_2 = 'TEMP',
                             COEF_MULT_2 = -1.,
                             COEF_IMPO = ZERO),
            _F(   GROUP_MA_1 = 'LW45',
                             GROUP_MA_2 = 'LG310',
                             DDL_1 = 'TEMP',
                             COEF_MULT_1 = 1.,
                             DDL_2 = 'TEMP',
                             COEF_MULT_2 = -1.,
                             COEF_IMPO = ZERO),
            _F(   GROUP_MA_1 = 'LW34',
                             GROUP_MA_2 = 'LG420',
                             SANS_NOEUD = ('N154', 'N1642',),
                             DDL_1 = 'TEMP',
                             COEF_MULT_1 = 1.,
                             DDL_2 = 'TEMP',
                             COEF_MULT_2 = -1.,
                             COEF_IMPO = ZERO),
            _F(   GROUP_MA_1 = 'LW23',
                             GROUP_MA_2 = 'LG530',
                             SANS_NOEUD = ('N175', 'N1629',),
                             DDL_1 = 'TEMP',
                             COEF_MULT_1 = 1.,
                             DDL_2 = 'TEMP',
                             COEF_MULT_2 = -1.,
                             COEF_IMPO = ZERO))
             )

CHTH2=AFFE_CHAR_THER_F(        MODELE=MOTH,
                             TEMP_IMPO=_F(  GROUP_NO = 'LPO',
                                         TEMP = TEXT),FLUX_NL=(
                               _F(  GROUP_MA = 'LSIN',
                                         FLUN = QINOX),
                               _F(  GROUP_MA = 'LSSU1',
                                         FLUN = QINOX),
                               _F(  GROUP_MA = 'LSSU2',
                                         FLUN = QINOX),
                               _F(  GROUP_MA = 'LRAY_F',
                                         FLUN = QINOX),
                               _F(  GROUP_MA = 'LRAY_Q',
                                         FLUN = QINOX),
                               _F(  GROUP_MA = 'LG202',
                                         FLUN = QINOX),
                               _F(  GROUP_MA = 'LW56',
                                         FLUN = QINOX),
                               _F(  GROUP_MA = 'LS123',
                                         FLUN = QINOX)),LIAISON_GROUP=(
             _F(  GROUP_MA_1 = 'LS112',
                             GROUP_MA_2 = 'LW67',
                             DDL_1 = 'TEMP',
                             COEF_MULT_1 = 1.,
                             DDL_2 = 'TEMP',
                             COEF_MULT_2 = -1.,
                             COEF_IMPO = ZERO),
             _F(  GROUP_MA_1 = 'LW45',
                             GROUP_MA_2 = 'LG310',
                             DDL_1 = 'TEMP',
                             COEF_MULT_1 = 1.,
                             DDL_2 = 'TEMP',
                             COEF_MULT_2 = -1.,
                             COEF_IMPO = ZERO),
            _F(  GROUP_MA_1 = 'LW34',
                            GROUP_MA_2 = 'LG420',
                            SANS_NOEUD = ('N154', 'N1642',),
                            DDL_1 = 'TEMP',
                            COEF_MULT_1 = 1.,
                            DDL_2 = 'TEMP',
                            COEF_MULT_2 = -1.,
                            COEF_IMPO = ZERO),
            _F(  GROUP_MA_1 = 'LW23',
                            GROUP_MA_2 = 'LG530',
                            SANS_NOEUD = ('N175', 'N1629',),
                            DDL_1 = 'TEMP',
                            COEF_MULT_1 = 1.,
                            DDL_2 = 'TEMP',
                            COEF_MULT_2 = -1.,
                            COEF_IMPO = ZERO))
                       )

CHFLUX=AFFE_CHAR_THER_F(        MODELE=MOTH,FLUX_REP=(
                               _F(  GROUP_MA = 'LRAY_F',
                                          FLUN = FLUX_ARC),
                               _F(  GROUP_MA = 'LG202',
                                          FLUN = FLUX_ARC),
                               _F(  GROUP_MA = 'LW56',
                                          FLUN = FLUX_ARC))
                                         )

LPAS=DEFI_LIST_REEL(          DEBUT=0.,INTERVALLE=(
                           _F(  JUSQU_A = 5.,  NOMBRE = 50),
                           _F(  JUSQU_A = 8.,  NOMBRE = 30),
                           _F(  JUSQU_A = 14.,  NOMBRE = 20),
                           _F(  JUSQU_A = 24.,  NOMBRE = 20),
                           _F(  JUSQU_A = 44.,  NOMBRE = 20),
                           _F(  JUSQU_A = 84.,  NOMBRE = 20),
                           _F(  JUSQU_A = 144.,  NOMBRE = 20),
                           _F(  JUSQU_A = 194.,  NOMBRE = 10),
                           _F(  JUSQU_A = 200.,  NOMBRE = 1),
                           _F(  JUSQU_A = 300.,  NOMBRE = 10),
                           _F(  JUSQU_A = 400.,  NOMBRE = 5),
                           _F(  JUSQU_A = 600.,  NOMBRE = 10))
                       )

TEMPE=THER_NON_LINE(         MODELE=MOTH,
                             INCREMENT=_F(  LIST_INST = LPAS,
                                           NUME_INST_FIN = 32),
                             CHAM_MATER=IMAT,EXCIT=(
                                _F(  CHARGE = CHTH1),
                                      _F(  CHARGE = CHFLUX,
                                        FONC_MULT = FMUL)),
                             ETAT_INIT=_F(  VALE = 20.),
                             CONVERGENCE=_F(  RESI_GLOB_MAXI = 1.E-5,
                                           ITER_GLOB_MAXI=7),
                             NEWTON=_F(  REAC_ITER = 1),
                             ARCHIVAGE=_F(LIST_INST=LPAS,),

                       )

TEMPE=THER_NON_LINE( reuse=TEMPE,        MODELE=MOTH,
                             INCREMENT=_F(  LIST_INST = LPAS,
                                         NUME_INST_INIT = 32,
                                         NUME_INST_FIN = 216),
                            CHAM_MATER=IMAT,
                                 EXCIT=_F(  CHARGE = CHTH2),
                             ETAT_INIT=_F(  EVOL_THER = TEMPE,
                                         NUME_ORDRE = 32),
                           CONVERGENCE=_F(  RESI_GLOB_MAXI = 1.E-5),
                                NEWTON=_F(  REAC_ITER = 1)
                        )

T1=CREA_CHAMP(  OPERATION='EXTR', TYPE_CHAM='NOEU_TEMP_R',
NOM_CHAM='TEMP', RESULTAT=TEMPE, NUME_ORDRE=30)

T2=CREA_CHAMP(  OPERATION='EXTR', TYPE_CHAM='NOEU_TEMP_R',
NOM_CHAM='TEMP', RESULTAT=TEMPE, NUME_ORDRE=150)

T3=CREA_CHAMP(  OPERATION='EXTR', TYPE_CHAM='NOEU_TEMP_R',
NOM_CHAM='TEMP', RESULTAT=TEMPE, NUME_ORDRE=200)

TEST_RESU(CHAM_NO=( 
_F(  CHAM_GD = T1, NOEUD = 'N939', NOM_CMP = 'TEMP', VALE = 20.0,
  PRECISION = 1.E-2),
_F(  CHAM_GD = T2, NOEUD = 'N939', NOM_CMP = 'TEMP', VALE = 79.3,
  PRECISION = 1.E-2),
_F(  CHAM_GD = T3, NOEUD = 'N939', NOM_CMP = 'TEMP', VALE = 49.6,
  PRECISION = 1.E-2))
           )

TEST_RESU(CHAM_NO=( 
_F(  CHAM_GD = T1, NOEUD = 'N1334', NOM_CMP = 'TEMP', VALE = 61.0,
  PRECISION = 1.E-2),
_F(  CHAM_GD = T2, NOEUD = 'N1334', NOM_CMP = 'TEMP', VALE = 96.8,
  PRECISION = 1.E-2),
_F(  CHAM_GD = T3, NOEUD = 'N1334', NOM_CMP = 'TEMP', VALE = 49.9,
  PRECISION = 1.E-2))
           )

TEST_RESU(CHAM_NO=( 
_F(  CHAM_GD = T1, NOEUD = 'N1498', NOM_CMP = 'TEMP', VALE = 527.0,
  PRECISION = 1.E-2),
_F(  CHAM_GD = T2, NOEUD = 'N1498', NOM_CMP = 'TEMP', VALE = 108.0,
  PRECISION = 1.E-2),
_F(  CHAM_GD = T3, NOEUD = 'N1498', NOM_CMP = 'TEMP', VALE = 49.9,
  PRECISION = 1.E-2))
           )

FIN()
#
