# MODIF  DATE 10/10/2012   AUTEUR COURTOIS M.COURTOIS 
# TITRE  MUR INFINI SOUMIS A UN FLUX CONSTANT AVEC PROPRIETES VARIABLES
# ttnl302a.para = tps_job 60 mem_job 256Mo ncpus 1 liste_test V
#            CONFIGURATION MANAGEMENT OF EDF VERSION
# ======================================================================
# COPYRIGHT (C) 1991 - 2012  EDF R&D                  WWW.CODE-ASTER.ORG
# THIS PROGRAM IS FREE SOFTWARE; YOU CAN REDISTRIBUTE IT AND/OR MODIFY
# IT UNDER THE TERMS OF THE GNU GENERAL PUBLIC LICENSE AS PUBLISHED BY
# THE FREE SOFTWARE FOUNDATION; EITHER VERSION 2 OF THE LICENSE, OR   
# (AT YOUR OPTION) ANY LATER VERSION.                                 
#
# THIS PROGRAM IS DISTRIBUTED IN THE HOPE THAT IT WILL BE USEFUL, BUT 
# WITHOUT ANY WARRANTY; WITHOUT EVEN THE IMPLIED WARRANTY OF          
# MERCHANTABILITY OR FITNESS FOR A PARTICULAR PURPOSE. SEE THE GNU    
# GENERAL PUBLIC LICENSE FOR MORE DETAILS.                            
#
# YOU SHOULD HAVE RECEIVED A COPY OF THE GNU GENERAL PUBLIC LICENSE   
# ALONG WITH THIS PROGRAM; IF NOT, WRITE TO EDF R&D CODE_ASTER,       
#    1 AVENUE DU GENERAL DE GAULLE, 92141 CLAMART CEDEX, FRANCE.      
# ======================================================================
#
# MAILLES : QUAD9 , SEG3
#

DEBUT(CODE=_F( NOM = 'TTNL302A',NIV_PUB_WEB='INTERNET'))

#
# LECTURE DU MAILLAGE ----------------------------------------------
#

MAIL=LIRE_MAILLAGE(FORMAT='MED', )

#
# DEFINITION DU MATERIAU -------------------------------------------
#

CONDUC=DEFI_FONCTION(    NOM_PARA='TEMP',  NOM_RESU='LAMBDA',
                            VALE=(    0.0,       1.0,
                                    100.0,      51.0,  ),
               PROL_DROITE='LINEAIRE',    PROL_GAUCHE='LINEAIRE' )

ENTHAL=DEFI_FONCTION(    NOM_PARA='TEMP',  NOM_RESU='CP',
                            VALE=(   0.000,  0.00000,
                                     0.025,  0.02516,
                                     0.050,  0.05063,
                                     0.075,  0.07641,
                                     0.100,  0.10250,
                                     0.125,  0.12891,
                                     0.150,  0.15563,
                                     0.175,  0.18266,
                                     0.200,  0.21000,
                                     0.225,  0.23766,
                                     0.250,  0.26563,
                                     0.275,  0.29391,
                                     0.300,  0.32250,
                                     0.325,  0.35141,
                                     0.350,  0.38063,
                                     0.375,  0.41016,
                                     0.400,  0.44000,
                                     0.425,  0.47016,
                                     0.450,  0.50063,
                                     0.475,  0.53141,
                                     0.500,  0.56250,
# ... 19 like lines cut
                                     1.000,  1.25000,  ),
               PROL_DROITE='LINEAIRE',    PROL_GAUCHE='LINEAIRE' )

MATER=DEFI_MATERIAU( THER_NL=_F(  LAMBDA = CONDUC,
                                  BETA = ENTHAL) )

#
# AFFECTATIONS: MATERIAU, MODELE, CHARGEMENT ----------------------
#


CHMAT=AFFE_MATERIAU(  MAILLAGE=MAIL,
                AFFE=_F(  TOUT = 'OUI', MATER = MATER) )

MOTH=AFFE_MODELE(  MAILLAGE=MAIL,
                          AFFE=_F( TOUT = 'OUI', MODELISATION = 'PLAN',
                                           PHENOMENE = 'THERMIQUE'))

CHTH=AFFE_CHAR_THER(MODELE=MOTH,
              FLUX_REP=_F( MAILLE = 'B1', FLUN = 1.0)
              )

#
# DEFINITION DE LA STRATEGIE DE CALCUL ---------------------------
#


LR8=DEFI_LIST_REEL(        DEBUT=0.,INTERVALLE=(
                   _F(    JUSQU_A = 5.E-2, NOMBRE = 40),
                   _F(    JUSQU_A = 1.E0,  NOMBRE = 76))
                  )

#
# RESOLUTION -----------------------------------------------------
#


TEMPE=THER_NON_LINE(       MODELE=MOTH,
                   ETAT_INIT=_F(       VALE = 0.0),
                   INCREMENT=_F(   LIST_INST = LR8),
                  CHAM_MATER=CHMAT,
                       EXCIT=_F(  CHARGE = CHTH),
                 CONVERGENCE=_F(  RESI_GLOB_RELA = 1.E-6),
                      NEWTON=_F(  REAC_ITER = 2)
              )

#
# ANALYSE DES RESULTATS ------------------------------------------
#
TEMP_01=CREA_CHAMP(  OPERATION='EXTR', TYPE_CHAM='NOEU_TEMP_R',
NOM_CHAM='TEMP', RESULTAT=TEMPE,
             INST=0.1 )

TEMP_03=CREA_CHAMP(  OPERATION='EXTR', TYPE_CHAM='NOEU_TEMP_R',
NOM_CHAM='TEMP', RESULTAT=TEMPE,
             INST=0.3 )

TEMP_05=CREA_CHAMP(  OPERATION='EXTR', TYPE_CHAM='NOEU_TEMP_R',
NOM_CHAM='TEMP', RESULTAT=TEMPE,
             INST=0.5 )

TEMP_07=CREA_CHAMP(  OPERATION='EXTR', TYPE_CHAM='NOEU_TEMP_R',
NOM_CHAM='TEMP', RESULTAT=TEMPE,
             INST=0.7 )

TEMP_10=CREA_CHAMP(  OPERATION='EXTR', TYPE_CHAM='NOEU_TEMP_R',
NOM_CHAM='TEMP', RESULTAT=TEMPE,
             INST=1.0 )

TEST_RESU(CHAM_NO=(_F(NOEUD='N1',
                      NOM_CMP='TEMP',
                      PRECISION=1.E-2,
                      CHAM_GD=TEMP_01,
                      VALE_CALC=0.329328111,
                      VALE_REFE=0.33000000000000002,
                      REFERENCE='NON_DEFINI',),
                   _F(NOEUD='N2',
                      NOM_CMP='TEMP',
                      PRECISION=1.E-2,
                      CHAM_GD=TEMP_01,
                      VALE_CALC=0.329328111,
                      VALE_REFE=0.33000000000000002,
                      REFERENCE='NON_DEFINI',),
                   _F(NOEUD='N3',
                      NOM_CMP='TEMP',
                      PRECISION=1.E-2,
                      CHAM_GD=TEMP_01,
                      VALE_CALC=0.329328111,
                      VALE_REFE=0.33000000000000002,
                      REFERENCE='NON_DEFINI',),
                   _F(NOEUD='N61',
                      NOM_CMP='TEMP',
                      PRECISION=0.012,
                      CHAM_GD=TEMP_01,
                      VALE_CALC= 4.04642421E-03,
                      VALE_REFE=4.0000000000000001E-3,
                      REFERENCE='NON_DEFINI',),
                   _F(NOEUD='N62',
                      NOM_CMP='TEMP',
                      PRECISION=0.012,
                      CHAM_GD=TEMP_01,
                      VALE_CALC= 4.04642421E-03,
                      VALE_REFE=4.0000000000000001E-3,
                      REFERENCE='NON_DEFINI',),
                   _F(NOEUD='N63',
                      NOM_CMP='TEMP',
                      PRECISION=0.012,
                      CHAM_GD=TEMP_01,
                      VALE_CALC= 4.04642421E-03,
                      VALE_REFE=4.0000000000000001E-3,
                      REFERENCE='NON_DEFINI',),
                   _F(NOEUD='N1',
                      NOM_CMP='TEMP',
                      PRECISION=1.E-2,
                      CHAM_GD=TEMP_03,
                      VALE_CALC=0.543737814,
                      VALE_REFE=0.54400000000000004,
                      REFERENCE='NON_DEFINI',),
                   _F(NOEUD='N2',
                      NOM_CMP='TEMP',
                      PRECISION=1.E-2,
                      CHAM_GD=TEMP_03,
                      VALE_CALC=0.543737814,
                      VALE_REFE=0.54400000000000004,
                      REFERENCE='NON_DEFINI',),
                   _F(NOEUD='N3',
                      NOM_CMP='TEMP',
                      PRECISION=1.E-2,
                      CHAM_GD=TEMP_03,
                      VALE_CALC=0.543737814,
                      VALE_REFE=0.54400000000000004,
                      REFERENCE='NON_DEFINI',),
                   _F(NOEUD='N61',
                      NOM_CMP='TEMP',
                      PRECISION=1.E-2,
                      CHAM_GD=TEMP_03,
                      VALE_CALC=0.070732598,
                      VALE_REFE=0.070999999999999994,
                      REFERENCE='NON_DEFINI',),
                   _F(NOEUD='N62',
                      NOM_CMP='TEMP',
                      PRECISION=1.E-2,
                      CHAM_GD=TEMP_03,
                      VALE_CALC=0.070732598,
                      VALE_REFE=0.070999999999999994,
                      REFERENCE='NON_DEFINI',),
                   _F(NOEUD='N63',
                      NOM_CMP='TEMP',
                      PRECISION=1.E-2,
                      CHAM_GD=TEMP_03,
                      VALE_CALC=0.070732598,
                      VALE_REFE=0.070999999999999994,
                      REFERENCE='NON_DEFINI',),
                   _F(NOEUD='N1',
                      NOM_CMP='TEMP',
                      PRECISION=1.E-2,
                      CHAM_GD=TEMP_05,
                      VALE_CALC=0.681489243,
                      VALE_REFE=0.68200000000000005,
                      REFERENCE='NON_DEFINI',),
                   _F(NOEUD='N2',
                      NOM_CMP='TEMP',
                      PRECISION=1.E-2,
                      CHAM_GD=TEMP_05,
                      VALE_CALC=0.681489243,
                      VALE_REFE=0.68200000000000005,
                      REFERENCE='NON_DEFINI',),
                   _F(NOEUD='N3',
                      NOM_CMP='TEMP',
                      PRECISION=1.E-2,
                      CHAM_GD=TEMP_05,
                      VALE_CALC=0.681489243,
                      VALE_REFE=0.68200000000000005,
                      REFERENCE='NON_DEFINI',),
                   _F(NOEUD='N61',
                      NOM_CMP='TEMP',
                      PRECISION=1.E-2,
                      CHAM_GD=TEMP_05,
                      VALE_CALC=0.160917432,
                      VALE_REFE=0.16,
                      REFERENCE='NON_DEFINI',),
                   _F(NOEUD='N62',
                      NOM_CMP='TEMP',
                      PRECISION=1.E-2,
                      CHAM_GD=TEMP_05,
                      VALE_CALC=0.160917432,
                      VALE_REFE=0.16,
                      REFERENCE='NON_DEFINI',),
                   _F(NOEUD='N63',
                      NOM_CMP='TEMP',
                      PRECISION=1.E-2,
                      CHAM_GD=TEMP_05,
                      VALE_CALC=0.160917432,
                      VALE_REFE=0.16,
                      REFERENCE='NON_DEFINI',),
                   _F(NOEUD='N1',
                      NOM_CMP='TEMP',
                      PRECISION=1.E-2,
                      CHAM_GD=TEMP_07,
                      VALE_CALC=0.788714751,
                      VALE_REFE=0.78900000000000003,
                      REFERENCE='NON_DEFINI',),
                   _F(NOEUD='N2',
                      NOM_CMP='TEMP',
                      PRECISION=1.E-2,
                      CHAM_GD=TEMP_07,
                      VALE_CALC=0.788714751,
                      VALE_REFE=0.78900000000000003,
                      REFERENCE='NON_DEFINI',),
                   _F(NOEUD='N3',
                      NOM_CMP='TEMP',
                      PRECISION=1.E-2,
                      CHAM_GD=TEMP_07,
                      VALE_CALC=0.788714751,
                      VALE_REFE=0.78900000000000003,
                      REFERENCE='NON_DEFINI',),
                   _F(NOEUD='N61',
                      NOM_CMP='TEMP',
                      PRECISION=0.017000000000000001,
                      CHAM_GD=TEMP_07,
                      VALE_CALC=0.250992552,
                      VALE_REFE=0.247,
                      REFERENCE='NON_DEFINI',),
                   _F(NOEUD='N62',
                      NOM_CMP='TEMP',
                      PRECISION=0.017000000000000001,
                      CHAM_GD=TEMP_07,
                      VALE_CALC=0.250992552,
                      VALE_REFE=0.247,
                      REFERENCE='NON_DEFINI',),
                   _F(NOEUD='N63',
                      NOM_CMP='TEMP',
                      PRECISION=0.017000000000000001,
                      CHAM_GD=TEMP_07,
                      VALE_CALC=0.250992552,
                      VALE_REFE=0.247,
                      REFERENCE='NON_DEFINI',),
                   _F(NOEUD='N1',
                      NOM_CMP='TEMP',
                      PRECISION=1.E-2,
                      CHAM_GD=TEMP_10,
                      VALE_CALC=0.920332912,
                      VALE_REFE=0.91800000000000004,
                      REFERENCE='NON_DEFINI',),
                   _F(NOEUD='N2',
                      NOM_CMP='TEMP',
                      PRECISION=1.E-2,
                      CHAM_GD=TEMP_10,
                      VALE_CALC=0.920332912,
                      VALE_REFE=0.91800000000000004,
                      REFERENCE='NON_DEFINI',),
                   _F(NOEUD='N3',
                      NOM_CMP='TEMP',
                      PRECISION=1.E-2,
                      CHAM_GD=TEMP_10,
                      VALE_CALC=0.920332912,
                      VALE_REFE=0.91800000000000004,
                      REFERENCE='NON_DEFINI',),
                   _F(NOEUD='N61',
                      NOM_CMP='TEMP',
                      PRECISION=0.040000000000000001,
                      CHAM_GD=TEMP_10,
                      VALE_CALC=0.380459314,
                      VALE_REFE=0.36599999999999999,
                      REFERENCE='NON_DEFINI',),
                   _F(NOEUD='N62',
                      NOM_CMP='TEMP',
                      PRECISION=0.040000000000000001,
                      CHAM_GD=TEMP_10,
                      VALE_CALC=0.380459314,
                      VALE_REFE=0.36599999999999999,
                      REFERENCE='NON_DEFINI',),
                   _F(NOEUD='N63',
                      NOM_CMP='TEMP',
                      PRECISION=0.040000000000000001,
                      CHAM_GD=TEMP_10,
                      VALE_CALC=0.380459314,
                      VALE_REFE=0.36599999999999999,
                      REFERENCE='NON_DEFINI',),
                   ),
          )

FIN()
#
