# TITRE MUR INFINI SOUMIS A UN SAUT DE TEMPERATURE
# ======================================================================
# COPYRIGHT (C) 1991 - 2015  EDF R&D                  WWW.CODE-ASTER.ORG
# THIS PROGRAM IS FREE SOFTWARE; YOU CAN REDISTRIBUTE IT AND/OR MODIFY
# IT UNDER THE TERMS OF THE GNU GENERAL PUBLIC LICENSE AS PUBLISHED BY
# THE FREE SOFTWARE FOUNDATION; EITHER VERSION 2 OF THE LICENSE, OR   
# (AT YOUR OPTION) ANY LATER VERSION.                                 
#
# THIS PROGRAM IS DISTRIBUTED IN THE HOPE THAT IT WILL BE USEFUL, BUT 
# WITHOUT ANY WARRANTY; WITHOUT EVEN THE IMPLIED WARRANTY OF          
# MERCHANTABILITY OR FITNESS FOR A PARTICULAR PURPOSE. SEE THE GNU    
# GENERAL PUBLIC LICENSE FOR MORE DETAILS.                            
#
# YOU SHOULD HAVE RECEIVED A COPY OF THE GNU GENERAL PUBLIC LICENSE   
# ALONG WITH THIS PROGRAM; IF NOT, WRITE TO EDF R&D CODE_ASTER,       
#    1 AVENUE DU GENERAL DE GAULLE, 92141 CLAMART CEDEX, FRANCE.      
# ======================================================================
#       AVEC PROPRIETES VARIABLES
# MAILLES : HEXA8
#

DEBUT(CODE=_F(NIV_PUB_WEB='INTERNET'))

#
# LECTURE DU MAILLAGE ----------------------------------------------
#

MAIL=LIRE_MAILLAGE(FORMAT='MED', )

#
# DEFINITION DES CHARGEMENTS ET DU MATERIAU ------------------------
#

TGAUCHE=DEFI_FONCTION(    NOM_RESU='TEMP',  NOM_PARA='INST',
                                  VALE=(0.0E0,      200.0E0,
                                       10.0E0,      200.0E0,
                                       10.001E0,    100.0E0,
                                      100.0E0,      100.0E0, )
                           )

TDROITE=DEFI_FONCTION(    NOM_RESU='TEMP',  NOM_PARA='INST',
                                  VALE=(0.0E0,      100.0E0,
                                      100.0E0,      100.0E0, )
                            )

CONDUC=DEFI_FONCTION(    NOM_PARA='TEMP',  NOM_RESU='LAMBDA',
                                 VALE=(    0.0,       2.E2,
                                         500.0,       7.E2, ),
               PROL_DROITE='LINEAIRE',    PROL_GAUCHE='LINEAIRE' )

ENTHAL=DEFI_FONCTION(    NOM_PARA='TEMP',  NOM_RESU='CP',
                                 VALE=(    0.0,      0.0,
                                         500.0,   4000.E6, ),
               PROL_DROITE='LINEAIRE',    PROL_GAUCHE='LINEAIRE' )

MATER=DEFI_MATERIAU( THER_NL=_F(  LAMBDA = CONDUC,
                                    BETA = ENTHAL) )

#
# AFFECTATIONS: MATERIAU, MODELE, CHARGEMENT ----------------------
#


CHMAT=AFFE_MATERIAU(  MAILLAGE=MAIL,
                 AFFE=_F(  TOUT = 'OUI', MATER = MATER) )

MOTH=AFFE_MODELE(  MAILLAGE=MAIL,
                         AFFE=_F( TOUT = 'OUI', MODELISATION = '3D',
                                          PHENOMENE = 'THERMIQUE'))

CHTH=AFFE_CHAR_THER_F(MODELE=MOTH,TEMP_IMPO=(
              _F( GROUP_NO = 'NOE_GAU', TEMP = TGAUCHE),
              _F( GROUP_NO = 'NOE_DRO', TEMP = TDROITE))
              )

#
# DEFINITION DE LA STATEGIE DE CALCUL -----------------------------
#

LR8=DEFI_LIST_REEL(        DEBUT=0.,INTERVALLE=(
                   _F(    JUSQU_A = 1.E-3, NOMBRE = 10),
                   _F(    JUSQU_A = 1.E-2, NOMBRE = 9),
                   _F(    JUSQU_A = 1.E-1, NOMBRE = 9),
                   _F(    JUSQU_A = 1.E0,  NOMBRE = 9),
                   _F(    JUSQU_A = 10.E0,  NOMBRE = 9),
                   _F(    JUSQU_A = 13.E0,  NOMBRE = 3))
                              )

#
# RESOLUTION ------------------------------------------------------
#

TEMPE=THER_NON_LINE(           MODELE=MOTH,
                   ETAT_INIT=_F(    VALE = 100.0),
                    INCREMENT=_F(   LIST_INST = LR8),
                   CHAM_MATER=CHMAT,
                        EXCIT=_F(  CHARGE = CHTH)
                 )

TEMP_10=CREA_CHAMP(  OPERATION='EXTR', TYPE_CHAM='NOEU_TEMP_R',
NOM_CHAM='TEMP', RESULTAT=TEMPE,
             INST=10.0 )

TEMP_13=CREA_CHAMP(  OPERATION='EXTR', TYPE_CHAM='NOEU_TEMP_R',
NOM_CHAM='TEMP', RESULTAT=TEMPE,
             INST=13.0 )

#
# ANALYSE DES RESULTATS -------------------------------------------
#

TEST_RESU(CHAM_NO=(_F(NOEUD='N80',
                      NOM_CMP='TEMP',
                      PRECISION=1.E-2,
                      CHAM_GD=TEMP_10,
                      VALE_CALC=175.615758752,
                      VALE_REFE=176.16499999999999,
                      REFERENCE='NON_DEFINI',),
                   _F(NOEUD='N64',
                      NOM_CMP='TEMP',
                      PRECISION=1.E-2,
                      CHAM_GD=TEMP_10,
                      VALE_CALC=175.615758752,
                      VALE_REFE=176.16499999999999,
                      REFERENCE='NON_DEFINI',),
                   _F(NOEUD='N26',
                      NOM_CMP='TEMP',
                      PRECISION=1.E-2,
                      CHAM_GD=TEMP_10,
                      VALE_CALC=175.615735383,
                      VALE_REFE=176.16499999999999,
                      REFERENCE='NON_DEFINI',),
                   _F(NOEUD='N17',
                      NOM_CMP='TEMP',
                      PRECISION=1.E-2,
                      CHAM_GD=TEMP_10,
                      VALE_CALC=175.615735383,
                      VALE_REFE=176.16499999999999,
                      REFERENCE='NON_DEFINI',),
                   _F(NOEUD='N80',
                      CRITERE='ABSOLU',
                      NOM_CMP='TEMP',
                      PRECISION=1.0,
                      CHAM_GD=TEMP_10,
                      VALE_CALC=175.615758752,
                      VALE_REFE=176.16499999999999,
                      REFERENCE='NON_DEFINI',),
                   _F(NOEUD='N64',
                      CRITERE='ABSOLU',
                      NOM_CMP='TEMP',
                      PRECISION=1.0,
                      CHAM_GD=TEMP_10,
                      VALE_CALC=175.615758752,
                      VALE_REFE=176.16499999999999,
                      REFERENCE='NON_DEFINI',),
                   _F(NOEUD='N26',
                      CRITERE='ABSOLU',
                      NOM_CMP='TEMP',
                      PRECISION=1.0,
                      CHAM_GD=TEMP_10,
                      VALE_CALC=175.615735383,
                      VALE_REFE=176.16499999999999,
                      REFERENCE='NON_DEFINI',),
                   _F(NOEUD='N17',
                      CRITERE='ABSOLU',
                      NOM_CMP='TEMP',
                      PRECISION=1.0,
                      CHAM_GD=TEMP_10,
                      VALE_CALC=175.615735383,
                      VALE_REFE=176.16499999999999,
                      REFERENCE='NON_DEFINI',),
                   _F(NOEUD='N112',
                      NOM_CMP='TEMP',
                      PRECISION=1.E-2,
                      CHAM_GD=TEMP_10,
                      VALE_CALC=152.232173697,
                      VALE_REFE=153.21299999999999,
                      REFERENCE='NON_DEFINI',),
                   _F(NOEUD='N91',
                      NOM_CMP='TEMP',
                      PRECISION=1.E-2,
                      CHAM_GD=TEMP_10,
                      VALE_CALC=152.232173697,
                      VALE_REFE=153.21299999999999,
                      REFERENCE='NON_DEFINI',),
                   _F(NOEUD='N58',
                      NOM_CMP='TEMP',
                      PRECISION=1.E-2,
                      CHAM_GD=TEMP_10,
                      VALE_CALC=152.232153024,
                      VALE_REFE=153.21299999999999,
                      REFERENCE='NON_DEFINI',),
                   _F(NOEUD='N36',
                      NOM_CMP='TEMP',
                      PRECISION=1.E-2,
                      CHAM_GD=TEMP_10,
                      VALE_CALC=152.232153024,
                      VALE_REFE=153.21299999999999,
                      REFERENCE='NON_DEFINI',),
                   _F(NOEUD='N112',
                      CRITERE='ABSOLU',
                      NOM_CMP='TEMP',
                      PRECISION=1.0,
                      CHAM_GD=TEMP_10,
                      VALE_CALC=152.232173697,
                      VALE_REFE=153.21299999999999,
                      REFERENCE='NON_DEFINI',),
                   _F(NOEUD='N91',
                      CRITERE='ABSOLU',
                      NOM_CMP='TEMP',
                      PRECISION=1.0,
                      CHAM_GD=TEMP_10,
                      VALE_CALC=152.232173697,
                      VALE_REFE=153.21299999999999,
                      REFERENCE='NON_DEFINI',),
                   _F(NOEUD='N58',
                      CRITERE='ABSOLU',
                      NOM_CMP='TEMP',
                      PRECISION=1.0,
                      CHAM_GD=TEMP_10,
                      VALE_CALC=152.232153024,
                      VALE_REFE=153.21299999999999,
                      REFERENCE='NON_DEFINI',),
                   _F(NOEUD='N36',
                      CRITERE='ABSOLU',
                      NOM_CMP='TEMP',
                      PRECISION=1.0,
                      CHAM_GD=TEMP_10,
                      VALE_CALC=152.232153024,
                      VALE_REFE=153.21299999999999,
                      REFERENCE='NON_DEFINI',),
                   _F(NOEUD='N160',
                      NOM_CMP='TEMP',
                      PRECISION=1.E-2,
                      CHAM_GD=TEMP_10,
                      VALE_CALC=117.606504996,
                      VALE_REFE=118.59999999999999,
                      REFERENCE='NON_DEFINI',),
                   _F(NOEUD='N149',
                      NOM_CMP='TEMP',
                      PRECISION=1.E-2,
                      CHAM_GD=TEMP_10,
                      VALE_CALC=117.606504996,
                      VALE_REFE=118.59999999999999,
                      REFERENCE='NON_DEFINI',),
                   _F(NOEUD='N141',
                      NOM_CMP='TEMP',
                      PRECISION=1.E-2,
                      CHAM_GD=TEMP_10,
                      VALE_CALC=117.606473366,
                      VALE_REFE=118.59999999999999,
                      REFERENCE='NON_DEFINI',),
                   _F(NOEUD='N122',
                      NOM_CMP='TEMP',
                      PRECISION=1.E-2,
                      CHAM_GD=TEMP_10,
                      VALE_CALC=117.606473366,
                      VALE_REFE=118.59999999999999,
                      REFERENCE='NON_DEFINI',),
                   _F(NOEUD='N160',
                      CRITERE='ABSOLU',
                      NOM_CMP='TEMP',
                      PRECISION=1.0,
                      CHAM_GD=TEMP_10,
                      VALE_CALC=117.606504996,
                      VALE_REFE=118.59999999999999,
                      REFERENCE='NON_DEFINI',),
                   _F(NOEUD='N149',
                      CRITERE='ABSOLU',
                      NOM_CMP='TEMP',
                      PRECISION=1.0,
                      CHAM_GD=TEMP_10,
                      VALE_CALC=117.606504996,
                      VALE_REFE=118.59999999999999,
                      REFERENCE='NON_DEFINI',),
                   _F(NOEUD='N141',
                      CRITERE='ABSOLU',
                      NOM_CMP='TEMP',
                      PRECISION=1.0,
                      CHAM_GD=TEMP_10,
                      VALE_CALC=117.606473366,
                      VALE_REFE=118.59999999999999,
                      REFERENCE='NON_DEFINI',),
                   _F(NOEUD='N122',
                      CRITERE='ABSOLU',
                      NOM_CMP='TEMP',
                      PRECISION=1.0,
                      CHAM_GD=TEMP_10,
                      VALE_CALC=117.606473366,
                      VALE_REFE=118.59999999999999,
                      REFERENCE='NON_DEFINI',),
                   _F(NOEUD='N224',
                      NOM_CMP='TEMP',
                      PRECISION=1.E-2,
                      CHAM_GD=TEMP_10,
                      VALE_CALC=103.364606605,
                      VALE_REFE=103.715,
                      REFERENCE='NON_DEFINI',),
                   _F(NOEUD='N213',
                      NOM_CMP='TEMP',
                      PRECISION=1.E-2,
                      CHAM_GD=TEMP_10,
                      VALE_CALC=103.364606605,
                      VALE_REFE=103.715,
                      REFERENCE='NON_DEFINI',),
                   _F(NOEUD='N204',
                      NOM_CMP='TEMP',
                      PRECISION=1.E-2,
                      CHAM_GD=TEMP_10,
                      VALE_CALC=103.364596323,
                      VALE_REFE=103.715,
                      REFERENCE='NON_DEFINI',),
                   _F(NOEUD='N193',
                      NOM_CMP='TEMP',
                      PRECISION=1.E-2,
                      CHAM_GD=TEMP_10,
                      VALE_CALC=103.364596323,
                      VALE_REFE=103.715,
                      REFERENCE='NON_DEFINI',),
                   _F(NOEUD='N224',
                      CRITERE='ABSOLU',
                      NOM_CMP='TEMP',
                      PRECISION=1.0,
                      CHAM_GD=TEMP_10,
                      VALE_CALC=103.364606605,
                      VALE_REFE=103.715,
                      REFERENCE='NON_DEFINI',),
                   _F(NOEUD='N213',
                      CRITERE='ABSOLU',
                      NOM_CMP='TEMP',
                      PRECISION=1.0,
                      CHAM_GD=TEMP_10,
                      VALE_CALC=103.364606605,
                      VALE_REFE=103.715,
                      REFERENCE='NON_DEFINI',),
                   _F(NOEUD='N204',
                      CRITERE='ABSOLU',
                      NOM_CMP='TEMP',
                      PRECISION=1.0,
                      CHAM_GD=TEMP_10,
                      VALE_CALC=103.364596323,
                      VALE_REFE=103.715,
                      REFERENCE='NON_DEFINI',),
                   _F(NOEUD='N193',
                      CRITERE='ABSOLU',
                      NOM_CMP='TEMP',
                      PRECISION=1.0,
                      CHAM_GD=TEMP_10,
                      VALE_CALC=103.364596323,
                      VALE_REFE=103.715,
                      REFERENCE='NON_DEFINI',),
                   _F(NOEUD='N288',
                      NOM_CMP='TEMP',
                      PRECISION=1.E-2,
                      CHAM_GD=TEMP_10,
                      VALE_CALC=100.329830350,
                      VALE_REFE=100.36799999999999,
                      REFERENCE='NON_DEFINI',),
                   _F(NOEUD='N277',
                      NOM_CMP='TEMP',
                      PRECISION=1.E-2,
                      CHAM_GD=TEMP_10,
                      VALE_CALC=100.329830350,
                      VALE_REFE=100.36799999999999,
                      REFERENCE='NON_DEFINI',),
                   _F(NOEUD='N268',
                      NOM_CMP='TEMP',
                      PRECISION=1.E-2,
                      CHAM_GD=TEMP_10,
                      VALE_CALC=100.329829472,
                      VALE_REFE=100.36799999999999,
                      REFERENCE='NON_DEFINI',),
                   _F(NOEUD='N257',
                      NOM_CMP='TEMP',
                      PRECISION=1.E-2,
                      CHAM_GD=TEMP_10,
                      VALE_CALC=100.329829472,
                      VALE_REFE=100.36799999999999,
                      REFERENCE='NON_DEFINI',),
                   _F(NOEUD='N288',
                      CRITERE='ABSOLU',
                      NOM_CMP='TEMP',
                      PRECISION=1.0,
                      CHAM_GD=TEMP_10,
                      VALE_CALC=100.329830350,
                      VALE_REFE=100.36799999999999,
                      REFERENCE='NON_DEFINI',),
                   _F(NOEUD='N277',
                      CRITERE='ABSOLU',
                      NOM_CMP='TEMP',
                      PRECISION=1.0,
                      CHAM_GD=TEMP_10,
                      VALE_CALC=100.329830350,
                      VALE_REFE=100.36799999999999,
                      REFERENCE='NON_DEFINI',),
                   _F(NOEUD='N268',
                      CRITERE='ABSOLU',
                      NOM_CMP='TEMP',
                      PRECISION=1.0,
                      CHAM_GD=TEMP_10,
                      VALE_CALC=100.329829472,
                      VALE_REFE=100.36799999999999,
                      REFERENCE='NON_DEFINI',),
                   _F(NOEUD='N257',
                      CRITERE='ABSOLU',
                      NOM_CMP='TEMP',
                      PRECISION=1.0,
                      CHAM_GD=TEMP_10,
                      VALE_CALC=100.329829472,
                      VALE_REFE=100.36799999999999,
                      REFERENCE='NON_DEFINI',),
                   _F(NOEUD='N352',
                      NOM_CMP='TEMP',
                      PRECISION=1.E-2,
                      CHAM_GD=TEMP_10,
                      VALE_CALC=100.014679179,
                      VALE_REFE=100.014,
                      REFERENCE='NON_DEFINI',),
                   _F(NOEUD='N341',
                      NOM_CMP='TEMP',
                      PRECISION=1.E-2,
                      CHAM_GD=TEMP_10,
                      VALE_CALC=100.014679179,
                      VALE_REFE=100.014,
                      REFERENCE='NON_DEFINI',),
                   _F(NOEUD='N332',
                      NOM_CMP='TEMP',
                      PRECISION=1.E-2,
                      CHAM_GD=TEMP_10,
                      VALE_CALC=100.014679122,
                      VALE_REFE=100.014,
                      REFERENCE='NON_DEFINI',),
                   _F(NOEUD='N321',
                      NOM_CMP='TEMP',
                      PRECISION=1.E-2,
                      CHAM_GD=TEMP_10,
                      VALE_CALC=100.014679122,
                      VALE_REFE=100.014,
                      REFERENCE='NON_DEFINI',),
                   _F(NOEUD='N352',
                      CRITERE='ABSOLU',
                      NOM_CMP='TEMP',
                      PRECISION=1.0,
                      CHAM_GD=TEMP_10,
                      VALE_CALC=100.014679179,
                      VALE_REFE=100.014,
                      REFERENCE='NON_DEFINI',),
                   _F(NOEUD='N341',
                      CRITERE='ABSOLU',
                      NOM_CMP='TEMP',
                      PRECISION=1.0,
                      CHAM_GD=TEMP_10,
                      VALE_CALC=100.014679179,
                      VALE_REFE=100.014,
                      REFERENCE='NON_DEFINI',),
                   _F(NOEUD='N332',
                      CRITERE='ABSOLU',
                      NOM_CMP='TEMP',
                      PRECISION=1.0,
                      CHAM_GD=TEMP_10,
                      VALE_CALC=100.014679122,
                      VALE_REFE=100.014,
                      REFERENCE='NON_DEFINI',),
                   _F(NOEUD='N321',
                      CRITERE='ABSOLU',
                      NOM_CMP='TEMP',
                      PRECISION=1.0,
                      CHAM_GD=TEMP_10,
                      VALE_CALC=100.014679122,
                      VALE_REFE=100.014,
                      REFERENCE='NON_DEFINI',),
                   _F(NOEUD='N80',
                      NOM_CMP='TEMP',
                      PRECISION=1.E-2,
                      CHAM_GD=TEMP_13,
                      VALE_CALC=128.927979819,
                      VALE_REFE=128.125,
                      REFERENCE='NON_DEFINI',),
                   _F(NOEUD='N64',
                      NOM_CMP='TEMP',
                      PRECISION=1.E-2,
                      CHAM_GD=TEMP_13,
                      VALE_CALC=128.927979819,
                      VALE_REFE=128.125,
                      REFERENCE='NON_DEFINI',),
                   _F(NOEUD='N26',
                      NOM_CMP='TEMP',
                      PRECISION=1.E-2,
                      CHAM_GD=TEMP_13,
                      VALE_CALC=128.927977457,
                      VALE_REFE=128.125,
                      REFERENCE='NON_DEFINI',),
                   _F(NOEUD='N17',
                      NOM_CMP='TEMP',
                      PRECISION=1.E-2,
                      CHAM_GD=TEMP_13,
                      VALE_CALC=128.927977457,
                      VALE_REFE=128.125,
                      REFERENCE='NON_DEFINI',),
                   _F(NOEUD='N80',
                      CRITERE='ABSOLU',
                      NOM_CMP='TEMP',
                      PRECISION=1.0,
                      CHAM_GD=TEMP_13,
                      VALE_CALC=128.927979819,
                      VALE_REFE=128.125,
                      REFERENCE='NON_DEFINI',),
                   _F(NOEUD='N64',
                      CRITERE='ABSOLU',
                      NOM_CMP='TEMP',
                      PRECISION=1.0,
                      CHAM_GD=TEMP_13,
                      VALE_CALC=128.927979819,
                      VALE_REFE=128.125,
                      REFERENCE='NON_DEFINI',),
                   _F(NOEUD='N26',
                      CRITERE='ABSOLU',
                      NOM_CMP='TEMP',
                      PRECISION=1.0,
                      CHAM_GD=TEMP_13,
                      VALE_CALC=128.927977457,
                      VALE_REFE=128.125,
                      REFERENCE='NON_DEFINI',),
                   _F(NOEUD='N17',
                      CRITERE='ABSOLU',
                      NOM_CMP='TEMP',
                      PRECISION=1.0,
                      CHAM_GD=TEMP_13,
                      VALE_CALC=128.927977457,
                      VALE_REFE=128.125,
                      REFERENCE='NON_DEFINI',),
                   _F(NOEUD='N112',
                      NOM_CMP='TEMP',
                      PRECISION=1.E-2,
                      CHAM_GD=TEMP_13,
                      VALE_CALC=140.279108308,
                      VALE_REFE=139.97,
                      REFERENCE='NON_DEFINI',),
                   _F(NOEUD='N91',
                      NOM_CMP='TEMP',
                      PRECISION=1.E-2,
                      CHAM_GD=TEMP_13,
                      VALE_CALC=140.279108308,
                      VALE_REFE=139.97,
                      REFERENCE='NON_DEFINI',),
                   _F(NOEUD='N58',
                      NOM_CMP='TEMP',
                      PRECISION=1.E-2,
                      CHAM_GD=TEMP_13,
                      VALE_CALC=140.279100137,
                      VALE_REFE=139.97,
                      REFERENCE='NON_DEFINI',),
                   _F(NOEUD='N36',
                      NOM_CMP='TEMP',
                      PRECISION=1.E-2,
                      CHAM_GD=TEMP_13,
                      VALE_CALC=140.279100137,
                      VALE_REFE=139.97,
                      REFERENCE='NON_DEFINI',),
                   _F(NOEUD='N112',
                      CRITERE='ABSOLU',
                      NOM_CMP='TEMP',
                      PRECISION=1.0,
                      CHAM_GD=TEMP_13,
                      VALE_CALC=140.279108308,
                      VALE_REFE=139.97,
                      REFERENCE='NON_DEFINI',),
                   _F(NOEUD='N91',
                      CRITERE='ABSOLU',
                      NOM_CMP='TEMP',
                      PRECISION=1.0,
                      CHAM_GD=TEMP_13,
                      VALE_CALC=140.279108308,
                      VALE_REFE=139.97,
                      REFERENCE='NON_DEFINI',),
                   _F(NOEUD='N58',
                      CRITERE='ABSOLU',
                      NOM_CMP='TEMP',
                      PRECISION=1.0,
                      CHAM_GD=TEMP_13,
                      VALE_CALC=140.279100137,
                      VALE_REFE=139.97,
                      REFERENCE='NON_DEFINI',),
                   _F(NOEUD='N36',
                      CRITERE='ABSOLU',
                      NOM_CMP='TEMP',
                      PRECISION=1.0,
                      CHAM_GD=TEMP_13,
                      VALE_CALC=140.279100137,
                      VALE_REFE=139.97,
                      REFERENCE='NON_DEFINI',),
                   _F(NOEUD='N160',
                      NOM_CMP='TEMP',
                      PRECISION=1.E-2,
                      CHAM_GD=TEMP_13,
                      VALE_CALC=123.777134114,
                      VALE_REFE=124.71899999999999,
                      REFERENCE='NON_DEFINI',),
                   _F(NOEUD='N149',
                      NOM_CMP='TEMP',
                      PRECISION=1.E-2,
                      CHAM_GD=TEMP_13,
                      VALE_CALC=123.777134114,
                      VALE_REFE=124.71899999999999,
                      REFERENCE='NON_DEFINI',),
                   _F(NOEUD='N141',
                      NOM_CMP='TEMP',
                      PRECISION=1.E-2,
                      CHAM_GD=TEMP_13,
                      VALE_CALC=123.777100125,
                      VALE_REFE=124.71899999999999,
                      REFERENCE='NON_DEFINI',),
                   _F(NOEUD='N122',
                      NOM_CMP='TEMP',
                      PRECISION=1.E-2,
                      CHAM_GD=TEMP_13,
                      VALE_CALC=123.777100125,
                      VALE_REFE=124.71899999999999,
                      REFERENCE='NON_DEFINI',),
                   _F(NOEUD='N160',
                      CRITERE='ABSOLU',
                      NOM_CMP='TEMP',
                      PRECISION=1.0,
                      CHAM_GD=TEMP_13,
                      VALE_CALC=123.777134114,
                      VALE_REFE=124.71899999999999,
                      REFERENCE='NON_DEFINI',),
                   _F(NOEUD='N149',
                      CRITERE='ABSOLU',
                      NOM_CMP='TEMP',
                      PRECISION=1.0,
                      CHAM_GD=TEMP_13,
                      VALE_CALC=123.777134114,
                      VALE_REFE=124.71899999999999,
                      REFERENCE='NON_DEFINI',),
                   _F(NOEUD='N141',
                      CRITERE='ABSOLU',
                      NOM_CMP='TEMP',
                      PRECISION=1.0,
                      CHAM_GD=TEMP_13,
                      VALE_CALC=123.777100125,
                      VALE_REFE=124.71899999999999,
                      REFERENCE='NON_DEFINI',),
                   _F(NOEUD='N122',
                      CRITERE='ABSOLU',
                      NOM_CMP='TEMP',
                      PRECISION=1.0,
                      CHAM_GD=TEMP_13,
                      VALE_CALC=123.777100125,
                      VALE_REFE=124.71899999999999,
                      REFERENCE='NON_DEFINI',),
                   _F(NOEUD='N224',
                      NOM_CMP='TEMP',
                      PRECISION=1.E-2,
                      CHAM_GD=TEMP_13,
                      VALE_CALC=106.738101286,
                      VALE_REFE=107.182,
                      REFERENCE='NON_DEFINI',),
                   _F(NOEUD='N213',
                      NOM_CMP='TEMP',
                      PRECISION=1.E-2,
                      CHAM_GD=TEMP_13,
                      VALE_CALC=106.738101286,
                      VALE_REFE=107.182,
                      REFERENCE='NON_DEFINI',),
                   _F(NOEUD='N204',
                      NOM_CMP='TEMP',
                      PRECISION=1.E-2,
                      CHAM_GD=TEMP_13,
                      VALE_CALC=106.738083753,
                      VALE_REFE=107.182,
                      REFERENCE='NON_DEFINI',),
                   _F(NOEUD='N193',
                      NOM_CMP='TEMP',
                      PRECISION=1.E-2,
                      CHAM_GD=TEMP_13,
                      VALE_CALC=106.738083753,
                      VALE_REFE=107.182,
                      REFERENCE='NON_DEFINI',),
                   _F(NOEUD='N224',
                      CRITERE='ABSOLU',
                      NOM_CMP='TEMP',
                      PRECISION=1.0,
                      CHAM_GD=TEMP_13,
                      VALE_CALC=106.738101286,
                      VALE_REFE=107.182,
                      REFERENCE='NON_DEFINI',),
                   _F(NOEUD='N213',
                      CRITERE='ABSOLU',
                      NOM_CMP='TEMP',
                      PRECISION=1.0,
                      CHAM_GD=TEMP_13,
                      VALE_CALC=106.738101286,
                      VALE_REFE=107.182,
                      REFERENCE='NON_DEFINI',),
                   _F(NOEUD='N204',
                      CRITERE='ABSOLU',
                      NOM_CMP='TEMP',
                      PRECISION=1.0,
                      CHAM_GD=TEMP_13,
                      VALE_CALC=106.738083753,
                      VALE_REFE=107.182,
                      REFERENCE='NON_DEFINI',),
                   _F(NOEUD='N193',
                      CRITERE='ABSOLU',
                      NOM_CMP='TEMP',
                      PRECISION=1.0,
                      CHAM_GD=TEMP_13,
                      VALE_CALC=106.738083753,
                      VALE_REFE=107.182,
                      REFERENCE='NON_DEFINI',),
                   _F(NOEUD='N288',
                      NOM_CMP='TEMP',
                      PRECISION=1.E-2,
                      CHAM_GD=TEMP_13,
                      VALE_CALC=101.186246553,
                      VALE_REFE=101.29000000000001,
                      REFERENCE='NON_DEFINI',),
                   _F(NOEUD='N277',
                      NOM_CMP='TEMP',
                      PRECISION=1.E-2,
                      CHAM_GD=TEMP_13,
                      VALE_CALC=101.186246553,
                      VALE_REFE=101.29000000000001,
                      REFERENCE='NON_DEFINI',),
                   _F(NOEUD='N268',
                      NOM_CMP='TEMP',
                      PRECISION=1.E-2,
                      CHAM_GD=TEMP_13,
                      VALE_CALC=101.186243884,
                      VALE_REFE=101.29000000000001,
                      REFERENCE='NON_DEFINI',),
                   _F(NOEUD='N257',
                      NOM_CMP='TEMP',
                      PRECISION=1.E-2,
                      CHAM_GD=TEMP_13,
                      VALE_CALC=101.186243884,
                      VALE_REFE=101.29000000000001,
                      REFERENCE='NON_DEFINI',),
                   _F(NOEUD='N288',
                      CRITERE='ABSOLU',
                      NOM_CMP='TEMP',
                      PRECISION=1.0,
                      CHAM_GD=TEMP_13,
                      VALE_CALC=101.186246553,
                      VALE_REFE=101.29000000000001,
                      REFERENCE='NON_DEFINI',),
                   _F(NOEUD='N277',
                      CRITERE='ABSOLU',
                      NOM_CMP='TEMP',
                      PRECISION=1.0,
                      CHAM_GD=TEMP_13,
                      VALE_CALC=101.186246553,
                      VALE_REFE=101.29000000000001,
                      REFERENCE='NON_DEFINI',),
                   _F(NOEUD='N268',
                      CRITERE='ABSOLU',
                      NOM_CMP='TEMP',
                      PRECISION=1.0,
                      CHAM_GD=TEMP_13,
                      VALE_CALC=101.186243884,
                      VALE_REFE=101.29000000000001,
                      REFERENCE='NON_DEFINI',),
                   _F(NOEUD='N257',
                      CRITERE='ABSOLU',
                      NOM_CMP='TEMP',
                      PRECISION=1.0,
                      CHAM_GD=TEMP_13,
                      VALE_CALC=101.186243884,
                      VALE_REFE=101.29000000000001,
                      REFERENCE='NON_DEFINI',),
                   _F(NOEUD='N352',
                      NOM_CMP='TEMP',
                      PRECISION=1.E-2,
                      CHAM_GD=TEMP_13,
                      VALE_CALC=100.125554457,
                      VALE_REFE=100.134,
                      REFERENCE='NON_DEFINI',),
                   _F(NOEUD='N341',
                      NOM_CMP='TEMP',
                      PRECISION=1.E-2,
                      CHAM_GD=TEMP_13,
                      VALE_CALC=100.125554457,
                      VALE_REFE=100.134,
                      REFERENCE='NON_DEFINI',),
                   _F(NOEUD='N332',
                      NOM_CMP='TEMP',
                      PRECISION=1.E-2,
                      CHAM_GD=TEMP_13,
                      VALE_CALC=100.125554092,
                      VALE_REFE=100.134,
                      REFERENCE='NON_DEFINI',),
                   _F(NOEUD='N321',
                      NOM_CMP='TEMP',
                      PRECISION=1.E-2,
                      CHAM_GD=TEMP_13,
                      VALE_CALC=100.125554092,
                      VALE_REFE=100.134,
                      REFERENCE='NON_DEFINI',),
                   _F(NOEUD='N352',
                      CRITERE='ABSOLU',
                      NOM_CMP='TEMP',
                      PRECISION=1.0,
                      CHAM_GD=TEMP_13,
                      VALE_CALC=100.125554457,
                      VALE_REFE=100.134,
                      REFERENCE='NON_DEFINI',),
                   _F(NOEUD='N341',
                      CRITERE='ABSOLU',
                      NOM_CMP='TEMP',
                      PRECISION=1.0,
                      CHAM_GD=TEMP_13,
                      VALE_CALC=100.125554457,
                      VALE_REFE=100.134,
                      REFERENCE='NON_DEFINI',),
                   _F(NOEUD='N332',
                      CRITERE='ABSOLU',
                      NOM_CMP='TEMP',
                      PRECISION=1.0,
                      CHAM_GD=TEMP_13,
                      VALE_CALC=100.125554092,
                      VALE_REFE=100.134,
                      REFERENCE='NON_DEFINI',),
                   _F(NOEUD='N321',
                      CRITERE='ABSOLU',
                      NOM_CMP='TEMP',
                      PRECISION=1.0,
                      CHAM_GD=TEMP_13,
                      VALE_CALC=100.125554092,
                      VALE_REFE=100.134,
                      REFERENCE='NON_DEFINI',),
                   ),
          )

FIN()
#
