# ======================================================================
# COPYRIGHT (C) 1991 - 2016  EDF R&D                  WWW.CODE-ASTER.ORG
# THIS PROGRAM IS FREE SOFTWARE; YOU CAN REDISTRIBUTE IT AND/OR MODIFY
# IT UNDER THE TERMS OF THE GNU GENERAL PUBLIC LICENSE AS PUBLISHED BY
# THE FREE SOFTWARE FOUNDATION; EITHER VERSION 2 OF THE LICENSE, OR
# (AT YOUR OPTION) ANY LATER VERSION.
#
# THIS PROGRAM IS DISTRIBUTED IN THE HOPE THAT IT WILL BE USEFUL, BUT
# WITHOUT ANY WARRANTY; WITHOUT EVEN THE IMPLIED WARRANTY OF
# MERCHANTABILITY OR FITNESS FOR A PARTICULAR PURPOSE. SEE THE GNU
# GENERAL PUBLIC LICENSE FOR MORE DETAILS.
#
# YOU SHOULD HAVE RECEIVED A COPY OF THE GNU GENERAL PUBLIC LICENSE
# ALONG WITH THIS PROGRAM; IF NOT, WRITE TO EDF R&D CODE_ASTER,
#    1 AVENUE DU GENERAL DE GAULLE, 92141 CLAMART CEDEX, FRANCE.
# ======================================================================
# person_in_charge: mathieu.courtois at edf.fr
DEBUT(CODE=_F(NIV_PUB_WEB='INTERNET',
              VISU_EFICAS='NON'))

# Ce test vérifie les arguments dans le catalogue de commandes
# et imprime l'ensemble des mots-clés et les commandes qui les utilisent
# sous cette forme :
#
#      DDL       :: AFFE_CHAR_ACOU   / AFFE_CHAR_THER   / ...
#      DDL_1     :: AFFE_CHAR_THER   / AFFE_CHAR_MECA_F / ...
#      DDL_2     :: AFFE_CHAR_THER   / AFFE_CHAR_MECA_F /
#

# this replaces 'import vocab01a.33'
execfile('fort.33', globals())

# read the previous 'fort.34'
import re
try:
    text = open( 'fort.34', 'rb' ).read()
    recmt = re.compile('^#')
    existing_keywords = [line for line in text.splitlines() if not recmt.search(line)]
except IOError:
    existing_keywords = ['???']

# En cas de NOOK, mettre INFO=2 dans l'appel à VOCAB01 ci-dessous,
# Un message de ce type sera affiché dans l'output indiquant le
# fichier produit contenant tous les mots-clés du catalogue.
#
# NB : Vous ne devez modifier ce fichier que si le vocabulaire a été validé !
#
#    ************************************************************
#
#     Nom du fichier à recopier pour mettre à jour vocab01a.34
#
#                        /tmp/vocab01a_OTsZV1
#
#    ************************************************************

# Pour la vérification des valeurs de UIinfo
authorized = (
    'Acoustique',
    'Chargements',
    'Dynamique',
    'Eléments de structure',
    'Fonctions',
    'Gestion du travail',
    'Impression',
    'Lecture',
    'Maillage',
    'Matrices et vecteurs',
    'Modélisation',
    'Mécanique',
    'Outils-métier',
    'Post-traitements',
    'Rupture',
    'Résolution',
    'Résultats et champs',
    'Tables',
    'Thermique',
    'Utilitaires',
)

# TEST_TABLE are included in the "macro-command"
VOCAB01(EXISTANT=existing_keywords,
        UIINFO=authorized,
        INFO=2)

FIN()
