# MODIF  DATE 11/06/2012   AUTEUR PELLET J.PELLET 
# TITRE CALCUL DE RESATURATION D UNE BO PAR UNE BG SUR UN BI-MATERIAUX BO-BG
# wtna100a.para = tps_job 60 mem_job 128Mo ncpus 1 liste_test R
#            CONFIGURATION MANAGEMENT OF EDF VERSION
# ======================================================================
# COPYRIGHT (C) 1991 - 2012  EDF R&D                  WWW.CODE-ASTER.ORG
# THIS PROGRAM IS FREE SOFTWARE; YOU CAN REDISTRIBUTE IT AND/OR MODIFY
# IT UNDER THE TERMS OF THE GNU GENERAL PUBLIC LICENSE AS PUBLISHED BY
# THE FREE SOFTWARE FOUNDATION; EITHER VERSION 2 OF THE LICENSE, OR
# (AT YOUR OPTION) ANY LATER VERSION.
#
# THIS PROGRAM IS DISTRIBUTED IN THE HOPE THAT IT WILL BE USEFUL, BUT
# WITHOUT ANY WARRANTY; WITHOUT EVEN THE IMPLIED WARRANTY OF
# MERCHANTABILITY OR FITNESS FOR A PARTICULAR PURPOSE. SEE THE GNU
# GENERAL PUBLIC LICENSE FOR MORE DETAILS.
#
# YOU SHOULD HAVE RECEIVED A COPY OF THE GNU GENERAL PUBLIC LICENSE
# ALONG WITH THIS PROGRAM; IF NOT, WRITE TO EDF R&D CODE_ASTER,
#    1 AVENUE DU GENERAL DE GAULLE, 92141 CLAMART CEDEX, FRANCE.
# ======================================================================
# (CALCUL AXIS_HHD)

DEBUT(CODE=_F(NOM='WTNA100A',NIV_PUB_WEB='INTERNET'),DEBUG=_F(SDVERI='OUI'));


MAIL=LIRE_MAILLAGE(FORMAT='MED',);

#
#  LISTE DES INSTANTS DE CALCUL
#


INST1=DEFI_LIST_REEL(DEBUT=0.0,
                     INTERVALLE=(_F(JUSQU_A=1.E7,
                                    NOMBRE=10,),
                                 _F(JUSQU_A=1.E8,
                                    NOMBRE=1,),
                                 _F(JUSQU_A=1.E9,
                                    NOMBRE=9,),),);


MAIL=DEFI_GROUP(reuse =MAIL,
                MAILLAGE=MAIL,
                CREA_GROUP_NO=(_F(GROUP_MA='LBABG',),
                               _F(GROUP_MA='LBABO',),
                               _F(GROUP_MA='LINTBO',),
                               _F(GROUP_MA='LINTBG',),
                               _F(GROUP_MA='SURFBO',),
                               _F(GROUP_MA='SURFBG',),
                               _F(GROUP_MA='SURF',),),);

MODELE=AFFE_MODELE(MAILLAGE=MAIL,
                   AFFE=_F(TOUT='OUI',
                           PHENOMENE='MECANIQUE',
                           MODELISATION='AXIS_HHD',),);
#
#
MAIL=DEFI_GROUP( reuse=MAIL,
               MAILLAGE=MAIL,
               CREA_GROUP_MA=(_F(NOM='ROCHE',
                                     TOUT='OUI'),),
               CREA_GROUP_NO=(_F(NOM='ROCHES',
                                 CRIT_NOEUD='SOMMET',
                                 GROUP_MA='ROCHE'),),)

UN=DEFI_CONSTANTE(VALE=1.0,);

ZERO=DEFI_CONSTANTE(VALE=0.0,);

VISCOLIQ=DEFI_CONSTANTE(VALE=1.E-3,);

VISCOGAZ=DEFI_CONSTANTE(VALE=1.8E-05,);

DVISCOL=DEFI_CONSTANTE(VALE=0.0,);

DVISCOG=DEFI_CONSTANTE(VALE=0.0,);


LI2=DEFI_LIST_REEL(DEBUT=0.0,
                   INTERVALLE=_F(JUSQU_A=1.E9,
                                 PAS=1.E6,),);

LI1=DEFI_LIST_REEL(DEBUT=1.E-5,
                   INTERVALLE=_F(JUSQU_A=1.0,
                                 PAS=0.099999,),);
# PROPRIETES DE LA B.O.
#



LTBO=DEFI_CONSTANTE(VALE=0.6,);
LSO = FORMULE(NOM_PARA='SAT',VALE='(0.35*SAT)');

LSBO=CALC_FONC_INTERP(FONCTION=LSO,
                        LIST_PARA=LI1,
                        NOM_PARA='SAT',
                        PROL_GAUCHE='LINEAIRE',
                        PROL_DROITE='LINEAIRE',
                        INFO=2,);
DLSBO=DEFI_CONSTANTE(VALE=0.35,);

SL = FORMULE(NOM_PARA='PCAP',VALE='0.99*(1.-PCAP*6.E-9)');

SATUBO=CALC_FONC_INTERP(FONCTION=SL,
                        LIST_PARA=LI2,
                        NOM_PARA='PCAP',
                        PROL_DROITE='CONSTANT',
                        PROL_GAUCHE='CONSTANT',
                        INFO=2,);


DSL = FORMULE(NOM_PARA='PCAP',VALE='-6.E-9*0.99');

DSATBO=CALC_FONC_INTERP(FONCTION=DSL,
                        LIST_PARA=LI2,
                        NOM_PARA='PCAP',
                        PROL_DROITE='CONSTANT',
                        PROL_GAUCHE='CONSTANT',
                        INFO=2,);


PERM = FORMULE(NOM_PARA='SAT',VALE='SAT');

PERM11BO=CALC_FONC_INTERP(FONCTION=PERM,
                          LIST_PARA=LI1,
                          NOM_PARA='SAT',
                          PROL_DROITE='CONSTANT',
                          PROL_GAUCHE='CONSTANT',
                          INFO=2,);


DPERMBO = FORMULE(NOM_PARA='SAT',VALE='1.');

DPR11BO=CALC_FONC_INTERP(FONCTION=DPERMBO,
                         LIST_PARA=LI1,
                          NOM_PARA='SAT',
                         PROL_DROITE='CONSTANT',
                         PROL_GAUCHE='CONSTANT',
                         INFO=2,);


PERM2BO = FORMULE(NOM_PARA='SAT',VALE='1.-SAT');

PERM21BO=CALC_FONC_INTERP(FONCTION=PERM2BO,
                          LIST_PARA=LI1,
                          NOM_PARA='SAT',
                          PROL_DROITE='CONSTANT',
                          PROL_GAUCHE='CONSTANT',
                          INFO=2,);


DPERM2BO = FORMULE(NOM_PARA='SAT',VALE='-1.');

DPR21BO=CALC_FONC_INTERP(FONCTION=DPERM2BO,
                         LIST_PARA=LI1,
                          NOM_PARA='SAT',
                         PROL_DROITE='CONSTANT',
                         PROL_GAUCHE='CONSTANT',
                         INFO=2,);
#
# CONDUCTIVITE THERMIQUE DE LA BO
#


DM8=DEFI_CONSTANTE(VALE=1.E-07,);

KINTBO=DEFI_CONSTANTE(VALE=1.E-20,);
EL = DEFI_FONCTION  ( NOM_PARA   = 'TEMP' ,
             VALE = ( 0.     ,  1.9E+20  ,
                      500.    ,  1.9E+20  , ),
                        PROL_DROITE  ='CONSTANT' ,
                        PROL_GAUCHE  ='CONSTANT' , );

NU=DEFI_CONSTANTE(VALE=0.2,);
BIDON = 0.,
MATERBO=DEFI_MATERIAU(
                    ELAS_FO=_F(E=EL,
                              NU=NU,
                              RHO=2670.,
                              ALPHA=ZERO,
                              TEMP_DEF_ALPHA  =BIDON,
                              ),
                      COMP_THM = 'LIQU_GAZ',
                      THM_LIQU=_F(RHO=1000.0,
                                  UN_SUR_K=5.E-10,
                                  ALPHA=1.E-4,
                                  CP=4180.0,
                                  VISC=VISCOLIQ,
                                  D_VISC_TEMP=DVISCOL,),
                      THM_GAZ=_F(MASS_MOL=0.02896,
                                 CP=1000.0,
                                 VISC=VISCOGAZ,
                                 D_VISC_TEMP=ZERO,),
                      THM_VAPE_GAZ=_F(MASS_MOL=0.018,
                                      CP=1870.0,
                                      VISC=VISCOGAZ,
                                      D_VISC_TEMP=ZERO,),
                      THM_INIT=_F(TEMP=293.0,
                                  PRE1=0.0,
                                  PRE2=1.E5,
                                  PORO=0.35,
                                  PRES_VAPE=2320.0,
                                  DEGR_SATU=0.5742,),
                      THM_DIFFU=_F(R_GAZ=8.315,
                                   RHO=2670.0,
                                   CP=482.0,
                                   BIOT_COEF=1.0,
                                   SATU_PRES=SATUBO,
                                   D_SATU_PRES=DSATBO,
                                   PESA_X=0.0,
                                   PESA_Y=0.0,
                                   PESA_Z=0.0,
                                   PERM_IN=KINTBO,
                                   PERM_LIQU=PERM11BO,
                                   D_PERM_LIQU_SATU=DPR11BO,
                                   PERM_GAZ=PERM21BO,
                                   D_PERM_SATU_GAZ=DPR21BO,
                                   D_PERM_PRES_GAZ=ZERO,
                                   LAMB_T=LTBO,
                                   LAMB_S=LSBO,
                                   D_LB_S=DLSBO,
                                   LAMB_CT=0.728),);
# PROPRIETES DE LA B.G.
#

KINTBG=DEFI_CONSTANTE(VALE=1.E-19,);

# CONDUCTIVITE THERMIQUE DE LA BG
#




LTBG=DEFI_CONSTANTE(VALE=0.6,);
LSG = FORMULE(NOM_PARA='SAT',VALE='(0.05*SAT)');

LSBG=CALC_FONC_INTERP(FONCTION=LSG,
                        LIST_PARA=LI1,
                        NOM_PARA='SAT',
                        PROL_GAUCHE='LINEAIRE',
                        PROL_DROITE='LINEAIRE',
                        INFO=2,);
DLSBG=DEFI_CONSTANTE(VALE=0.05,);

MATERBG=DEFI_MATERIAU(
                    ELAS_FO=_F(E=EL,
                              NU=NU,
                              RHO=2670.,
                              ALPHA=ZERO,
                              TEMP_DEF_ALPHA  =BIDON,
                              ),
                      COMP_THM = 'LIQU_GAZ',
                      THM_LIQU=_F(RHO=1000.0,
                                  UN_SUR_K=5.E-10,
                                  ALPHA=1.E-4,
                                  CP=4180.0,
                                  VISC=VISCOLIQ,
                                  D_VISC_TEMP=DVISCOL,),
                      THM_GAZ=_F(MASS_MOL=0.02896,
                                 CP=1000.0,
                                 VISC=VISCOGAZ,
                                 D_VISC_TEMP=ZERO,),
                      THM_VAPE_GAZ=_F(MASS_MOL=0.018,
                                      CP=1870.0,
                                      VISC=UN,
                                      D_VISC_TEMP=ZERO,),
                      THM_INIT=_F(TEMP=293.0,
                                  PRE1=0.0,
                                  PRE2=1.E5,
                                  PORO=0.05,
                                  PRES_VAPE=2320.0,
                                  DEGR_SATU=0.8118,),
                      THM_DIFFU=_F(R_GAZ=8.315,
                                   RHO=2670.0,
                                   CP=706.0,
                                   BIOT_COEF=1.0,
                                   SATU_PRES=SATUBO,
                                   D_SATU_PRES=DSATBO,
                                   PESA_X=0.0,
                                   PESA_Y=0.0,
                                   PESA_Z=0.0,
                                   PERM_IN=KINTBG,
                                   PERM_LIQU=PERM11BO,
                                   D_PERM_LIQU_SATU=DPR11BO,
                                   PERM_GAZ=PERM21BO,
                                   D_PERM_SATU_GAZ=DPR21BO,
                                   D_PERM_PRES_GAZ=ZERO,
                                   LAMB_T=LTBG,
                                   LAMB_S=LSBG,
                                   D_LB_S=DLSBG,
                                   LAMB_CT=1.539),);

CHMAT0=AFFE_MATERIAU(MAILLAGE=MAIL,
                     AFFE=(_F(GROUP_MA='SURFBO', MATER=MATERBO,),
                           _F(GROUP_MA='SURFBG', MATER=MATERBG,),),
                     AFFE_VARC=_F(TOUT='OUI', NOM_VARC='TEMP',VALE_REF=0.,),
                              );
IMPR_CO(CONCEPT=_F(NOM=CHMAT0))
#
# AFFECTATION DE L ETAT INITIAL
#


CHAMNO=CREA_CHAMP(MAILLAGE=MAIL,
                    OPERATION='AFFE',
                    TYPE_CHAM='NOEU_DEPL_R',
                    AFFE=(_F(GROUP_NO='SURFBO',
                             NOM_CMP='PRE1',
                             VALE=7.E7,),
                          _F(GROUP_NO='SURFBG',
                             NOM_CMP='PRE1',
                             VALE=3.E7,),
                          _F(NOEUD=('NO300','NO296'),
                             NOM_CMP='PRE1',
                             VALE=5.E7,),
                          _F(GROUP_NO='SURFBO',
                             NOM_CMP='PRE2',
                             VALE=0.0,),
                          _F(GROUP_NO='SURFBG',
                             NOM_CMP='PRE2',
                             VALE=0.0,),),);

CALEXT=AFFE_CHAR_MECA(MODELE=MODELE,
                      DDL_IMPO=(_F(GROUP_NO='ROCHES',
                                   PRE2=0.0,),),);


SIGINIT=CREA_CHAMP(MAILLAGE=MAIL,
                   OPERATION='AFFE',
                   TYPE_CHAM='CART_SIEF_R',
                   AFFE=(_F(GROUP_MA='SURFBO',
                            NOM_CMP=
                            ('M11','FH11X','FH11Y',
                             'M12','FH12X','FH12Y',
                             'M21','FH21X','FH21Y'),
                            VALE=
                            (0.0, 0.0, 0.0,
                             0.0, 0.0, 0.0,
                             0.0, 0.0, 0.0,),),
                         _F(GROUP_MA='SURFBG',
                            NOM_CMP=
                            ('M11','FH11X','FH11Y',
                             'M12','FH12X','FH12Y',
                             'M21','FH21X','FH21Y',),
                            VALE=
                            (0.0, 0.0, 0.0,
                             0.0, 0.0, 0.0,
                             0.0, 0.0, 0.0,),),),);

U0=STAT_NON_LINE(MODELE=MODELE,
                 CHAM_MATER=CHMAT0,
                 EXCIT=_F(CHARGE=CALEXT,),
                 COMP_INCR=_F(RELATION='KIT_HH',PARM_THETA=0.57,
                              ITER_INTE_MAXI=5,
                              RELATION_KIT=('LIQU_GAZ','HYDR_UTIL'),),
                 ETAT_INIT=_F(DEPL=CHAMNO,
                              SIGM=SIGINIT
                 ),
                 INCREMENT=_F(LIST_INST=INST1,),
                 NEWTON=_F(MATRICE='TANGENTE',
                           REAC_ITER=10,),
                 CONVERGENCE=_F(RESI_GLOB_MAXI=1.0E-05,
                                ITER_GLOB_MAXI=150,),
                 ARCHIVAGE=_F(PAS_ARCH=1,),);

U0=CALC_CHAMP(reuse=U0,CONTRAINTE=('SIEF_ELNO'),VARI_INTERNE=('VARI_ELNO'),RESULTAT=U0)


TRB=POST_RELEVE_T(ACTION=_F(INTITULE='DEPL',
                            GROUP_NO=('LBABG','LBABO'),
                            RESULTAT=U0,
                            NOM_CHAM='DEPL',
                            NUME_ORDRE=(1,10,11,20),
                            NOM_CMP=('PRE1'),
                            OPERATION='EXTRACTION',),);

TRB11=POST_RELEVE_T(ACTION=_F(INTITULE='DEPL',
                            GROUP_NO=('LBABG','LBABO'),
                            RESULTAT=U0,
                            NOM_CHAM='DEPL',
                            NUME_ORDRE=(11),
                            NOM_CMP=('PRE1'),
                            OPERATION='EXTRACTION',),);

TRB2=POST_RELEVE_T(ACTION=_F(INTITULE='CONT',
                             GROUP_NO=('LBABG','LBABO'),
                             RESULTAT=U0,
                             NOM_CHAM='SIEF_ELNO',

                             NOM_CMP=('M11','FH11X','FH11Y'),
                             OPERATION='EXTRACTION',),);

ZTRB=POST_RELEVE_T(ACTION=_F(INTITULE='DEPL',
                             NOEUD=('NO294','NO295','NO299','NO300','NO304','NO305','NO309'),
                             RESULTAT=U0,
                             NOM_CHAM='DEPL',

                             NOM_CMP=('PRE1'),
                             OPERATION='EXTRACTION',),);

ZTRB2=POST_RELEVE_T(ACTION=_F(INTITULE='DEPL',
                             NOEUD=('NO294','NO295','NO299','NO300','NO304','NO305','NO309'),
                              RESULTAT=U0,
                              NOM_CHAM='SIEF_ELNO',

                              NOM_CMP=('M11','FH11X','M21','FH21X'),
                              OPERATION='EXTRACTION',),);


ZTRB3=POST_RELEVE_T(ACTION=_F(INTITULE='DEPL',
                             NOEUD=('NO294','NO295','NO299','NO300','NO304','NO305','NO309'),
                              RESULTAT=U0,
                              NOM_CHAM='VARI_ELNO',

                              NOM_CMP=('V2'),
                              OPERATION='EXTRACTION',),);
IMPR_TABLE(TABLE=TRB,
           UNITE=8,
           FORMAT='AGRAF',
           PAGINATION='INST',
           NOM_PARA=('INST','COOR_X','PRE1'),);

IMPR_TABLE(TABLE=ZTRB,
           UNITE=8,
           FORMAT='AGRAF',
           PAGINATION='INST',
           NOM_PARA=('INST','COOR_X','PRE1'),);

IMPR_TABLE(TABLE=ZTRB2,
           UNITE=8,
           FORMAT='AGRAF',
           PAGINATION='INST',
           NOM_PARA=('INST','COOR_X','M11'),);

IMPR_TABLE(TABLE=ZTRB2,
           UNITE=8,
           FORMAT='AGRAF',
           PAGINATION='INST',
           NOM_PARA=('INST','COOR_X','FH11X'),);

IMPR_TABLE(TABLE=ZTRB2,
           UNITE=8,
           FORMAT='AGRAF',
           PAGINATION='INST',
           NOM_PARA=('INST','COOR_X','M21'),);

IMPR_TABLE(TABLE=ZTRB2,
           UNITE=8,
           FORMAT='AGRAF',
           PAGINATION='INST',
           NOM_PARA=('INST','COOR_X','FH21X'),);
#
# V2 masse volumique du liquide
#
IMPR_TABLE(TABLE=ZTRB3,
           UNITE=8,
           FORMAT='AGRAF',
           PAGINATION='INST',
           NOM_PARA=('INST','COOR_X','V2'),);

TEST_RESU(RESU=_F(RESULTAT=U0,
                  NUME_ORDRE=1,
                  NOM_CHAM='DEPL',
                  NOM_CMP='PRE1',
                  NOEUD='NO294',
                  VALE=3.67374E+07,
                  CRITERE='RELATIF',
                  PRECISION=1E-4,
                  REFERENCE='NON_REGRESSION',),);
TEST_RESU(RESU=_F(RESULTAT=U0,
                  NUME_ORDRE=1,
                  NOM_CHAM='DEPL',
                  NOM_CMP='PRE1',
                  NOEUD='NO309',
                  VALE=6.69685E+07,
                  CRITERE='RELATIF',
                  PRECISION=1E-4,
                  REFERENCE='NON_REGRESSION',),);
TEST_RESU(RESU=_F(RESULTAT=U0,
                  NUME_ORDRE=10,
                  NOM_CHAM='DEPL',
                  NOM_CMP='PRE1',
                  NOEUD='NO294',
                  VALE=4.0818E+07,
                  CRITERE='RELATIF',
                  PRECISION=1E-4,
                  REFERENCE='NON_REGRESSION',),);
TEST_RESU(RESU=_F(RESULTAT=U0,
                  NUME_ORDRE=10,
                  NOM_CHAM='DEPL',
                  NOM_CMP='PRE1',
                  NOEUD='NO309',
                  VALE=4.98592E+07,
                  CRITERE='RELATIF',
                  PRECISION=1E-4,
                  REFERENCE='NON_REGRESSION',),);
TEST_RESU(RESU=_F(RESULTAT=U0,
                  NUME_ORDRE=11,
                  NOM_CHAM='DEPL',
                  NOM_CMP='PRE1',
                  NOEUD='NO294',
                  VALE=3.5608E+07,
                  CRITERE='RELATIF',
                  PRECISION=1E-4,
                  REFERENCE='NON_REGRESSION',),);
TEST_RESU(RESU=_F(RESULTAT=U0,
                  NUME_ORDRE=11,
                  NOM_CHAM='DEPL',
                  NOM_CMP='PRE1',
                  NOEUD='NO309',
                  VALE=3.60920E+07,
                  CRITERE='RELATIF',
                  PRECISION=1E-4,
                  REFERENCE='NON_REGRESSION',),);
TEST_RESU(RESU=_F(RESULTAT=U0,
                  NUME_ORDRE=20,
                  NOM_CHAM='DEPL',
                  NOM_CMP='PRE1',
                  NOEUD='NO294',
                  VALE=3.3264E+07,
                  CRITERE='RELATIF',
                  PRECISION=1E-4,
                  REFERENCE='NON_REGRESSION',),);
TEST_RESU(RESU=_F(RESULTAT=U0,
                  NUME_ORDRE=20,
                  NOM_CHAM='DEPL',
                  NOM_CMP='PRE1',
                  NOEUD='NO309',
                  VALE=3.3273E+07,
                  CRITERE='RELATIF',
                  PRECISION=1E-4,
                  REFERENCE='NON_REGRESSION',),);

FIN();
