# MODIF  DATE 07/06/2002   AUTEUR DURAND C.DURAND 
# TITRE  - CONSOLIDATION TERZAGHI 2D Q8  
#            CONFIGURATION MANAGEMENT OF EDF VERSION
# ======================================================================
# COPYRIGHT (C) 1991 - 2002  EDF R&D                  WWW.CODE-ASTER.ORG
# THIS PROGRAM IS FREE SOFTWARE; YOU CAN REDISTRIBUTE IT AND/OR MODIFY
# IT UNDER THE TERMS OF THE GNU GENERAL PUBLIC LICENSE AS PUBLISHED BY
# THE FREE SOFTWARE FOUNDATION; EITHER VERSION 2 OF THE LICENSE, OR   
# (AT YOUR OPTION) ANY LATER VERSION.                                 
#
# THIS PROGRAM IS DISTRIBUTED IN THE HOPE THAT IT WILL BE USEFUL, BUT 
# WITHOUT ANY WARRANTY; WITHOUT EVEN THE IMPLIED WARRANTY OF          
# MERCHANTABILITY OR FITNESS FOR A PARTICULAR PURPOSE. SEE THE GNU    
# GENERAL PUBLIC LICENSE FOR MORE DETAILS.                            
#
# YOU SHOULD HAVE RECEIVED A COPY OF THE GNU GENERAL PUBLIC LICENSE   
# ALONG WITH THIS PROGRAM; IF NOT, WRITE TO EDF R&D CODE_ASTER,       
#    1 AVENUE DU GENERAL DE GAULLE, 92141 CLAMART CEDEX, FRANCE.      
#                                                                       
#                                                                       
# ======================================================================
#

DEBUT(CODE=_F(NOM='WTNL100A',NIV_PUB_WEB='INTERNET'),);
#
#  PRE_IDEAS      ( );
#

MAIL=LIRE_MAILLAGE();

MODELE=AFFE_MODELE(MAILLAGE=MAIL,
                   AFFE=_F(TOUT='OUI',
                           PHENOMENE='MECANIQUE',
                           MODELISATION='D_PLAN_HMD',),);

#  LISTE DES INSTANTS DE CALCUL
#

LI=DEFI_LIST_REEL(DEBUT=0.0,
                  INTERVALLE=(_F(JUSQU_A=1.E-4,
                                 NOMBRE=1,),
                              _F(JUSQU_A=1.E-3,
                                 NOMBRE=9,),
                              _F(JUSQU_A=1.E-2,
                                 NOMBRE=30,),
                              _F(JUSQU_A=0.10000000000000001,
                                 NOMBRE=40,),
                              _F(JUSQU_A=1.0,
                                 NOMBRE=50,),
                              _F(JUSQU_A=10,
                                 NOMBRE=45,),
                              _F(JUSQU_A=100,
                                 NOMBRE=47,),
                              _F(JUSQU_A=1000,
                                 NOMBRE=48,),
                              _F(JUSQU_A=10000,
                                 NOMBRE=50,),),);

UN=DEFI_CONSTANTE(VALE=1.0,);

ZERO=DEFI_CONSTANTE(VALE=0.0,);

BIDON=DEFI_CONSTANTE(VALE=0.0,);

#
#
#K=k*mu/(rhow*g)
#

KINT=DEFI_CONSTANTE(VALE=1.E-08,);
#

MATERIAU=DEFI_MATERIAU(ELAS=_F(E=1.E7,
                               NU=0.0,
                               RHO=2800.0,
                               ALPHA=1.0000000000000001E-05,),
                       THM_LIQU=_F(RHO=1000.0,
                                   UN_SUR_K=0.0,
                                   ALPHA=1.E-4,
                                   CP=4180.0,
                                   VISC=UN,
                                   D_VISC_TEMP=ZERO,
                                   LAMBDA=BIDON,
                                   D_LAMBDA_TEMP=BIDON,),
                       THM_GAZ=_F(MASS_MOL=0.02896,
                                  CP=1000.0,
                                  VISC=BIDON,
                                  D_VISC_TEMP=BIDON,
                                  LAMBDA=BIDON,
                                  D_LAMBDA_TEMP=BIDON,),
                       THM_VAPE_GAZ=_F(MASS_MOL=0.017999999999999999,
                                       CP=1870.0,
                                       VISC=BIDON,
                                       D_VISC_TEMP=BIDON,),
                       THM_INIT=_F(TEMP=293.0,
                                   PRE1=1.E6,
                                   PRE2=1.E5,
                                   PORO=0.5,
                                   PRES_VAPE=2320.0,),
                       THM_DIFFU=_F(R_GAZ=8.3149999999999995,
                                    RHO=2800.0,
                                    CP=660.0,
                                    BIOT_COEF=1.0,
                                    SATU_PRES=UN,
                                    D_SATU_PRES=ZERO,
                                    PESA_X=0.0,
                                    PESA_Y=0.0,
                                    PESA_Z=0.0,
                                    PERM_IN=KINT,
                                    PERM_LIQU=UN,
                                    D_PERM_LIQU_SATU=ZERO,
                                    PERM_GAZ=BIDON,
                                    D_PERM_SATU_GAZ=BIDON,
                                    D_PERM_PRES_GAZ=BIDON,
                                    FICK=BIDON,
                                    D_FICK_TEMP=BIDON,
                                    D_FICK_GAZ_PRES=BIDON,
                                    LAMBDA=BIDON,
                                    D_LAMBDA_TEMP=BIDON,),);

CHMAT0=AFFE_MATERIAU(MAILLAGE=MAIL,
                     AFFE=_F(TOUT='OUI',
                             MATER=MATERIAU,),);

CHAR=AFFE_CHAR_MECA(MODELE=MODELE,
                    DDL_IMPO=(_F(GROUP_NO='HAUT',
                                 PRE1=0.0,),
                              _F(GROUP_NO='BAS',
                                 DX=0.0,
                                 DY=0.0,),
                              _F(GROUP_NO='BORDVERT',
                                 DX=0.0,),),
                    PRES_REP=_F(GROUP_MA='FACESUP',
                                PRES=1.0,),);

RESU1=STAT_NON_LINE(MODELE=MODELE,
                    CHAM_MATER=CHMAT0,
                    EXCIT=_F(CHARGE=CHAR,),
                    COMP_INCR=_F(RELATION='KIT_HM',
                                 RELATION_KIT=('ELAS','LIQU_SATU','HYDR_UTIL'),),
                    INCREMENT=_F(LIST_INST=LI,
                                 INST_FIN=250.0,),
                    NEWTON=_F(MATRICE='TANGENTE',
                              REAC_ITER=10,),
                    CONVERGENCE=_F(ITER_GLOB_MAXI=10,),
                    PARM_THETA=0.56999999999999995,
                    SOLVEUR=_F(METHODE='LDLT',),
                    ARCHIVAGE=_F(INST=(0.0001,0.001,0.01,0.10000000000000001,1.0,10.0,50.212765959999999,100.0,193.75,250.0),
                                 PRECISION=1.E-3,),);

TEST_RESU(RESU=(_F(RESULTAT=RESU1,
                   NUME_ORDRE=1,
                   NOM_CHAM='DEPL',
                   NOM_CMP='PRE1',
                   NOEUD='NO48',
                   VALE=1.0,
                   PRECISION=1.E-3,
                   REFERENCE='ANALYTIQUE',),
                _F(RESULTAT=RESU1,
                   NUME_ORDRE=1,
                   NOM_CHAM='DEPL',
                   NOM_CMP='PRE1',
                   NOEUD='NO49',
                   VALE=0.99907999999999997,
                   PRECISION=1.E-3,
                   REFERENCE='ANALYTIQUE',),
                _F(RESULTAT=RESU1,
                   NUME_ORDRE=10,
                   NOM_CHAM='DEPL',
                   NOM_CMP='PRE1',
                   NOEUD='NO34',
                   VALE=0.68647999999999998,
                   PRECISION=1.E-3,
                   REFERENCE='ANALYTIQUE',),
                _F(RESULTAT=RESU1,
                   NUME_ORDRE=10,
                   NOM_CHAM='DEPL',
                   NOM_CMP='PRE1',
                   NOEUD='NO35',
                   VALE=0.68323999999999996,
                   PRECISION=1.E-3,
                   REFERENCE='ANALYTIQUE',),
                _F(RESULTAT=RESU1,
                   NUME_ORDRE=10,
                   NOM_CHAM='DEPL',
                   NOM_CMP='PRE1',
                   NOEUD='NO36',
                   VALE=0.67354000000000003,
                   PRECISION=1.E-3,
                   REFERENCE='ANALYTIQUE',),
                _F(RESULTAT=RESU1,
                   NUME_ORDRE=10,
                   NOM_CHAM='DEPL',
                   NOM_CMP='PRE1',
                   NOEUD='NO37',
                   VALE=0.65746000000000004,
                   PRECISION=1.E-3,
                   REFERENCE='ANALYTIQUE',),
                _F(RESULTAT=RESU1,
                   NUME_ORDRE=10,
                   NOM_CHAM='DEPL',
                   NOM_CMP='PRE1',
                   NOEUD='NO38',
                   VALE=0.63512999999999997,
                   PRECISION=1.E-3,
                   REFERENCE='ANALYTIQUE',),
                _F(RESULTAT=RESU1,
                   NUME_ORDRE=10,
                   NOM_CHAM='DEPL',
                   NOM_CMP='PRE1',
                   NOEUD='NO39',
                   VALE=0.60672999999999999,
                   PRECISION=1.E-3,
                   REFERENCE='ANALYTIQUE',),
                _F(RESULTAT=RESU1,
                   NUME_ORDRE=10,
                   NOM_CHAM='DEPL',
                   NOM_CMP='PRE1',
                   NOEUD='NO40',
                   VALE=0.57250000000000001,
                   PRECISION=1.E-3,
                   REFERENCE='ANALYTIQUE',),
                _F(RESULTAT=RESU1,
                   NUME_ORDRE=10,
                   NOM_CHAM='DEPL',
                   NOM_CMP='PRE1',
                   NOEUD='NO41',
                   VALE=0.53273000000000004,
                   PRECISION=1.E-3,
                   REFERENCE='ANALYTIQUE',),
                _F(RESULTAT=RESU1,
                   NUME_ORDRE=10,
                   NOM_CHAM='DEPL',
                   NOM_CMP='PRE1',
                   NOEUD='NO42',
                   VALE=0.48777999999999999,
                   PRECISION=1.E-3,
                   REFERENCE='ANALYTIQUE',),
                _F(RESULTAT=RESU1,
                   NUME_ORDRE=10,
                   NOM_CHAM='DEPL',
                   NOM_CMP='PRE1',
                   NOEUD='NO43',
                   VALE=0.43802999999999997,
                   PRECISION=1.E-3,
                   REFERENCE='ANALYTIQUE',),
                _F(RESULTAT=RESU1,
                   NUME_ORDRE=10,
                   NOM_CHAM='DEPL',
                   NOM_CMP='PRE1',
                   NOEUD='NO44',
                   VALE=0.38395000000000001,
                   PRECISION=1.E-3,
                   REFERENCE='ANALYTIQUE',),
                _F(RESULTAT=RESU1,
                   NUME_ORDRE=10,
                   NOM_CHAM='DEPL',
                   NOM_CMP='PRE1',
                   NOEUD='NO45',
                   VALE=0.32605000000000001,
                   PRECISION=1.E-3,
                   REFERENCE='ANALYTIQUE',),
                _F(RESULTAT=RESU1,
                   NUME_ORDRE=10,
                   NOM_CHAM='DEPL',
                   NOM_CMP='PRE1',
                   NOEUD='NO46',
                   VALE=0.26489000000000001,
                   PRECISION=1.E-3,
                   REFERENCE='ANALYTIQUE',),
                _F(RESULTAT=RESU1,
                   NUME_ORDRE=10,
                   NOM_CHAM='DEPL',
                   NOM_CMP='PRE1',
                   NOEUD='NO47',
                   VALE=0.20105000000000001,
                   PRECISION=1.E-3,
                   REFERENCE='ANALYTIQUE',),
                _F(RESULTAT=RESU1,
                   NUME_ORDRE=10,
                   NOM_CHAM='DEPL',
                   NOM_CMP='PRE1',
                   NOEUD='NO48',
                   VALE=0.13517999999999999,
                   PRECISION=1.E-3,
                   REFERENCE='ANALYTIQUE',),
                _F(RESULTAT=RESU1,
                   NUME_ORDRE=10,
                   NOM_CHAM='DEPL',
                   NOM_CMP='PRE1',
                   NOEUD='NO49',
                   VALE=0.067934999999999995,
                   PRECISION=1.E-3,
                   REFERENCE='ANALYTIQUE',),
                _F(RESULTAT=RESU1,
                   NUME_ORDRE=10,
                   NOM_CHAM='DEPL',
                   NOM_CMP='PRE1',
                   NOEUD='NO50',
                   VALE=0.0,
                   CRITERE='ABSOLU',
                   PRECISION=9.9999999999999995E-07,
                   REFERENCE='ANALYTIQUE',),),);

RESU1=CALC_ELEM(reuse =RESU1,
                MODELE=MODELE,
                CHAM_MATER=CHMAT0,
                OPTION='SIEF_ELNO_ELGA',
                RESULTAT=RESU1,);

TEST_RESU(RESU=(_F(RESULTAT=RESU1,
                   NUME_ORDRE=1,
                   NOM_CHAM='SIEF_ELNO_ELGA',
                   NOM_CMP='SIYY',
                   MAILLE='MA15',
                   NOEUD='NO48',
                   CRITERE='ABSOLU',
                   PRECISION=1.E-08,
                   VALE=0.0,
                   REFERENCE='ANALYTIQUE',),
                _F(RESULTAT=RESU1,
                   NUME_ORDRE=10,
                   NOM_CHAM='SIEF_ELNO_ELGA',
                   NOM_CMP='SIYY',
                   MAILLE='MA1',
                   NOEUD='NO34',
                   VALE=-0.3135,
                   PRECISION=2.E-3,
                   REFERENCE='ANALYTIQUE',),
                _F(RESULTAT=RESU1,
                   NUME_ORDRE=10,
                   NOM_CHAM='SIEF_ELNO_ELGA',
                   NOM_CMP='SIYY',
                   MAILLE='MA2',
                   NOEUD='NO35',
                   VALE=-0.31676,
                   PRECISION=2.E-3,
                   REFERENCE='ANALYTIQUE',),
                _F(RESULTAT=RESU1,
                   NUME_ORDRE=10,
                   NOM_CHAM='SIEF_ELNO_ELGA',
                   NOM_CMP='SIYY',
                   MAILLE='MA3',
                   NOEUD='NO36',
                   VALE=-0.32646,
                   PRECISION=2.E-3,
                   REFERENCE='ANALYTIQUE',),
                _F(RESULTAT=RESU1,
                   NUME_ORDRE=10,
                   NOM_CHAM='SIEF_ELNO_ELGA',
                   NOM_CMP='SIYY',
                   MAILLE='MA4',
                   NOEUD='NO37',
                   VALE=-0.34254,
                   PRECISION=2.E-3,
                   REFERENCE='ANALYTIQUE',),
                _F(RESULTAT=RESU1,
                   NUME_ORDRE=10,
                   NOM_CHAM='SIEF_ELNO_ELGA',
                   NOM_CMP='SIYY',
                   MAILLE='MA5',
                   NOEUD='NO38',
                   VALE=-0.36487,
                   PRECISION=2.E-3,
                   REFERENCE='ANALYTIQUE',),
                _F(RESULTAT=RESU1,
                   NUME_ORDRE=10,
                   NOM_CHAM='SIEF_ELNO_ELGA',
                   NOM_CMP='SIYY',
                   MAILLE='MA6',
                   NOEUD='NO39',
                   VALE=-0.39327,
                   PRECISION=2.E-3,
                   REFERENCE='ANALYTIQUE',),
                _F(RESULTAT=RESU1,
                   NUME_ORDRE=10,
                   NOM_CHAM='SIEF_ELNO_ELGA',
                   NOM_CMP='SIYY',
                   MAILLE='MA7',
                   NOEUD='NO40',
                   VALE=-0.4275,
                   PRECISION=1.E-3,
                   REFERENCE='ANALYTIQUE',),
                _F(RESULTAT=RESU1,
                   NUME_ORDRE=10,
                   NOM_CHAM='SIEF_ELNO_ELGA',
                   NOM_CMP='SIYY',
                   MAILLE='MA8',
                   NOEUD='NO41',
                   VALE=-0.46727,
                   PRECISION=1.E-3,
                   REFERENCE='ANALYTIQUE',),
                _F(RESULTAT=RESU1,
                   NUME_ORDRE=10,
                   NOM_CHAM='SIEF_ELNO_ELGA',
                   NOM_CMP='SIYY',
                   MAILLE='MA9',
                   NOEUD='NO42',
                   VALE=-0.51222,
                   PRECISION=1.E-3,
                   REFERENCE='ANALYTIQUE',),
                _F(RESULTAT=RESU1,
                   NUME_ORDRE=10,
                   NOM_CHAM='SIEF_ELNO_ELGA',
                   NOM_CMP='SIYY',
                   MAILLE='MA10',
                   NOEUD='NO43',
                   VALE=-0.56197,
                   PRECISION=1.E-3,
                   REFERENCE='ANALYTIQUE',),
                _F(RESULTAT=RESU1,
                   NUME_ORDRE=10,
                   NOM_CHAM='SIEF_ELNO_ELGA',
                   NOM_CMP='SIYY',
                   MAILLE='MA11',
                   NOEUD='NO44',
                   VALE=-0.61605,
                   PRECISION=1.E-3,
                   REFERENCE='ANALYTIQUE',),
                _F(RESULTAT=RESU1,
                   NUME_ORDRE=10,
                   NOM_CHAM='SIEF_ELNO_ELGA',
                   NOM_CMP='SIYY',
                   NOEUD='NO45',
                   MAILLE='MA12',
                   VALE=-0.67395,
                   PRECISION=1.E-3,
                   REFERENCE='ANALYTIQUE',),
                _F(RESULTAT=RESU1,
                   NUME_ORDRE=10,
                   NOM_CHAM='SIEF_ELNO_ELGA',
                   NOM_CMP='SIYY',
                   NOEUD='NO46',
                   MAILLE='MA13',
                   VALE=-0.73511,
                   PRECISION=1.E-3,
                   REFERENCE='ANALYTIQUE',),
                _F(RESULTAT=RESU1,
                   NUME_ORDRE=10,
                   NOM_CHAM='SIEF_ELNO_ELGA',
                   NOM_CMP='SIYY',
                   NOEUD='NO47',
                   MAILLE='MA14',
                   VALE=-0.79895,
                   PRECISION=1.E-3,
                   REFERENCE='ANALYTIQUE',),
                _F(RESULTAT=RESU1,
                   NUME_ORDRE=10,
                   NOM_CHAM='SIEF_ELNO_ELGA',
                   NOM_CMP='SIYY',
                   NOEUD='NO48',
                   MAILLE='MA15',
                   VALE=-0.86482,
                   PRECISION=1.E-3,
                   REFERENCE='ANALYTIQUE',),
                _F(RESULTAT=RESU1,
                   NUME_ORDRE=10,
                   NOM_CHAM='SIEF_ELNO_ELGA',
                   NOM_CMP='SIYY',
                   NOEUD='NO49',
                   MAILLE='MA16',
                   VALE=-0.932065,
                   PRECISION=1.E-3,
                   REFERENCE='ANALYTIQUE',),
                _F(RESULTAT=RESU1,
                   NUME_ORDRE=10,
                   NOM_CHAM='SIEF_ELNO_ELGA',
                   NOM_CMP='SIYY',
                   NOEUD='NO50',
                   MAILLE='MA16',
                   VALE=-1.,
                   CRITERE='ABSOLU',
                   PRECISION=9.9999999999999995E-07,
                   REFERENCE='ANALYTIQUE',),),);

FIN();
