# MODIF  DATE 06/02/2013   AUTEUR COURTOIS M.COURTOIS 
# TITRE  - CONSOLIDATION TERZAGHI 2D Q8
# wtnl100a.para = tps_job 60 mem_job 512Mo ncpus 1 liste_test R
#            CONFIGURATION MANAGEMENT OF EDF VERSION
# ======================================================================
# COPYRIGHT (C) 1991 - 2013  EDF R&D                  WWW.CODE-ASTER.ORG
# THIS PROGRAM IS FREE SOFTWARE; YOU CAN REDISTRIBUTE IT AND/OR MODIFY
# IT UNDER THE TERMS OF THE GNU GENERAL PUBLIC LICENSE AS PUBLISHED BY
# THE FREE SOFTWARE FOUNDATION; EITHER VERSION 2 OF THE LICENSE, OR
# (AT YOUR OPTION) ANY LATER VERSION.
#
# THIS PROGRAM IS DISTRIBUTED IN THE HOPE THAT IT WILL BE USEFUL, BUT
# WITHOUT ANY WARRANTY; WITHOUT EVEN THE IMPLIED WARRANTY OF
# MERCHANTABILITY OR FITNESS FOR A PARTICULAR PURPOSE. SEE THE GNU
# GENERAL PUBLIC LICENSE FOR MORE DETAILS.
#
# YOU SHOULD HAVE RECEIVED A COPY OF THE GNU GENERAL PUBLIC LICENSE
# ALONG WITH THIS PROGRAM; IF NOT, WRITE TO EDF R&D CODE_ASTER,
#    1 AVENUE DU GENERAL DE GAULLE, 92141 CLAMART CEDEX, FRANCE.
#
#
# ======================================================================
#

DEBUT(CODE=_F(NOM='WTNL100A',NIV_PUB_WEB='INTERNET'),DEBUG=_F(SDVERI='OUI'))
#
#  PRE_IDEAS      ( );
#

MAIL=LIRE_MAILLAGE(FORMAT='MED',);

MODELE=AFFE_MODELE(MAILLAGE=MAIL,
                   AFFE=_F(TOUT='OUI',
                           PHENOMENE='MECANIQUE',
                           MODELISATION='D_PLAN_HMD',),);

#  LISTE DES INSTANTS DE CALCUL
#

LI=DEFI_LIST_REEL(DEBUT=0.0,
                  INTERVALLE=(_F(JUSQU_A=1.E-4,
                                 NOMBRE=1,),
                              _F(JUSQU_A=1.E-3,
                                 NOMBRE=9,),
                              _F(JUSQU_A=1.E-2,
                                 NOMBRE=30,),
                              _F(JUSQU_A=0.10000000000000001,
                                 NOMBRE=40,),
                              _F(JUSQU_A=1.0,
                                 NOMBRE=50,),
                              _F(JUSQU_A=10,
                                 NOMBRE=45,),
                              _F(JUSQU_A=100,
                                 NOMBRE=47,),
                              _F(JUSQU_A=1000,
                                 NOMBRE=48,),
                              _F(JUSQU_A=10000,
                                 NOMBRE=50,),),);

UN=DEFI_CONSTANTE(VALE=1.0,);

ZERO=DEFI_CONSTANTE(VALE=0.0,);

BIDON=DEFI_CONSTANTE(VALE=0.0,);

#
#
#K=k*mu/(rhow*g)
#

KINT=DEFI_CONSTANTE(VALE=1.E-08,);
#

MATERIAU=DEFI_MATERIAU(ELAS=_F(E=1.E7,
                               NU=0.0,
                               RHO=2800.0,
                               ALPHA=1.0000000000000001E-05,),
                       COMP_THM = 'LIQU_SATU',
                       THM_LIQU=_F(RHO=1000.0,
                                   UN_SUR_K=0.0,
                                   ALPHA=1.E-4,
                                   CP=4180.0,
                                   VISC=UN,
                                   D_VISC_TEMP=ZERO,),
                       THM_GAZ=_F(MASS_MOL=0.02896,
                                  CP=1000.0,
                                  VISC=BIDON,
                                  D_VISC_TEMP=BIDON,),
                       THM_VAPE_GAZ=_F(MASS_MOL=0.017999999999999999,
                                       CP=1870.0,
                                       VISC=BIDON,
                                       D_VISC_TEMP=BIDON,),
                       THM_INIT=_F(TEMP=293.0,
                                   PRE1=1.E6,
                                   PRE2=1.E5,
                                   PORO=0.5,
                                   PRES_VAPE=2320.0,),
                       THM_DIFFU=_F(R_GAZ=8.3149999999999995,
                                    RHO=2800.0,
                                    CP=660.0,
                                    BIOT_COEF=1.0,
                                    SATU_PRES=UN,
                                    D_SATU_PRES=ZERO,
                                    PESA_X=0.0,
                                    PESA_Y=0.0,
                                    PESA_Z=0.0,
                                    PERM_IN=KINT,
                                    PERM_LIQU=UN,
                                    D_PERM_LIQU_SATU=ZERO,
                                    PERM_GAZ=BIDON,
                                    D_PERM_SATU_GAZ=BIDON,
                                    D_PERM_PRES_GAZ=BIDON,),);

CHMAT0=AFFE_MATERIAU(MAILLAGE=MAIL,
                     AFFE=_F(TOUT='OUI',
                             MATER=MATERIAU,),);

CHAR=AFFE_CHAR_MECA(MODELE=MODELE,
                    DDL_IMPO=(_F(GROUP_NO='HAUT',
                                 PRE1=0.0,),
                              _F(GROUP_NO='BAS',
                                 DX=0.0,
                                 DY=0.0,),
                              _F(GROUP_NO='BORDVERT',
                                 DX=0.0,),),
                    PRES_REP=_F(GROUP_MA='FACESUP',
                                PRES=1.0,),);

RESU1=STAT_NON_LINE(MODELE=MODELE,
                    CHAM_MATER=CHMAT0,
                    EXCIT=_F(CHARGE=CHAR,),
                    COMP_INCR=_F(RELATION='KIT_HM',PARM_THETA=0.56999999999999995,
                                 RELATION_KIT=('ELAS','LIQU_SATU','HYDR_UTIL'),),
                    INCREMENT=_F(LIST_INST=LI,
                                 INST_FIN=250.0,),
                    NEWTON=_F(MATRICE='TANGENTE',
                              REAC_ITER=10,),
                    CONVERGENCE=_F(ITER_GLOB_MAXI=10,),
                    SOLVEUR=_F(METHODE='LDLT',),
                    ARCHIVAGE=_F(INST=(0.0001,0.001,0.01,0.10000000000000001,1.0,10.0,50.212765959999999,100.0,193.75,250.0),
                                 PRECISION=1.E-3,),);

RESU1=CALC_CHAMP(reuse=RESU1,
                 RESULTAT=RESU1,
                 CONTRAINTE=('SIGM_ELNO','SIGM_NOEU',),
                 CRITERES=('SIEQ_ELNO','SIEQ_NOEU',),
                 VARI_INTERNE=('VARI_ELNO','VARI_NOEU',),);

SIGMA2=POST_RELEVE_T(ACTION=_F(INTITULE='SIGMA',
                            RESULTAT=RESU1,
                                           GROUP_NO ='BORDVERT',
                                           INST = (0.0001,0.001,0.01,0.1,1.0,10.0,50.21276596,100.0,193.75,250.0,),
                            NOM_CHAM='SIGM_NOEU',
                            NOM_CMP=('SIXX','SIYY','SIZZ','SIXY',),
                            OPERATION='EXTRACTION',),);

VARIN2=POST_RELEVE_T(ACTION=_F(INTITULE='VARI',
                               RESULTAT=RESU1,
                                              GROUP_NO = 'BORDVERT',
                               NOM_CHAM='VARI_NOEU',
                               TOUT_CMP='OUI',
                                              INST=(0.0001,0.001,0.01,0.1,1.0,10.0,50.21276596,100.0,193.75,250.0,),
                               OPERATION='EXTRACTION',),);

DEPLA2=POST_RELEVE_T(ACTION=_F(INTITULE='DEPL',
                               RESULTAT=RESU1,
                                              GROUP_NO = 'BORDVERT',
                                              INST=(0.0001,0.001,0.01,0.1,1.0,10.0,50.21276596,100.0,193.75,250.0,),
                               NOM_CHAM='DEPL',
                                              TOUT_CMP = 'OUI',
                               OPERATION='EXTRACTION',),);

IMPR_TABLE(TABLE=SIGMA2,);
IMPR_TABLE(TABLE=VARIN2,);
IMPR_TABLE(TABLE=DEPLA2,);

TEST_RESU(RESU=(_F(NUME_ORDRE=1,
                   REFERENCE='ANALYTIQUE',
                   RESULTAT=RESU1,
                   NOM_CHAM='DEPL',
                   NOEUD='NO29',
                   NOM_CMP='PRE1',
                   VALE_CALC=1.000000000,
                   VALE_REFE=1.0,
                   PRECISION=1.E-3,),
                _F(NUME_ORDRE=1,
                   REFERENCE='ANALYTIQUE',
                   RESULTAT=RESU1,
                   NOM_CHAM='DEPL',
                   NOEUD='NO31',
                   NOM_CMP='PRE1',
                   VALE_CALC=0.999985408,
                   VALE_REFE=1.0,
                   PRECISION=1.E-3,),
                _F(NUME_ORDRE=10,
                   REFERENCE='ANALYTIQUE',
                   RESULTAT=RESU1,
                   NOM_CHAM='DEPL',
                   NOEUD='NO1',
                   NOM_CMP='PRE1',
                   VALE_CALC=0.685909775,
                   VALE_REFE=0.68544576689000003,
                   PRECISION=1.E-3,),
                _F(NUME_ORDRE=10,
                   REFERENCE='ANALYTIQUE',
                   RESULTAT=RESU1,
                   NOM_CHAM='DEPL',
                   NOEUD='NO3',
                   NOM_CMP='PRE1',
                   VALE_CALC=0.682675650,
                   VALE_REFE=0.68220814716400002,
                   PRECISION=1.E-3,),
                _F(NUME_ORDRE=10,
                   REFERENCE='ANALYTIQUE',
                   RESULTAT=RESU1,
                   NOM_CHAM='DEPL',
                   NOEUD='NO5',
                   NOM_CMP='PRE1',
                   VALE_CALC=0.672998507,
                   VALE_REFE=0.67252104433000004,
                   PRECISION=1.E-3,),
                _F(NUME_ORDRE=10,
                   REFERENCE='ANALYTIQUE',
                   RESULTAT=RESU1,
                   NOM_CHAM='DEPL',
                   NOEUD='NO7',
                   NOM_CMP='PRE1',
                   VALE_CALC=0.656954299,
                   VALE_REFE=0.65646194626300003,
                   PRECISION=1.E-3,),
                _F(NUME_ORDRE=10,
                   REFERENCE='ANALYTIQUE',
                   RESULTAT=RESU1,
                   NOM_CHAM='DEPL',
                   NOEUD='NO9',
                   NOM_CMP='PRE1',
                   VALE_CALC=0.634670457,
                   VALE_REFE=0.63416068659299996,
                   PRECISION=1.E-3,),
                _F(NUME_ORDRE=10,
                   REFERENCE='ANALYTIQUE',
                   RESULTAT=RESU1,
                   NOM_CHAM='DEPL',
                   NOEUD='NO11',
                   NOM_CMP='PRE1',
                   VALE_CALC=0.606326997,
                   VALE_REFE=0.60580033139400002,
                   PRECISION=1.E-3,),
                _F(NUME_ORDRE=10,
                   REFERENCE='ANALYTIQUE',
                   RESULTAT=RESU1,
                   NOM_CHAM='DEPL',
                   NOEUD='NO13',
                   NOM_CMP='PRE1',
                   VALE_CALC=0.572157759,
                   VALE_REFE=0.571618145927,
                   PRECISION=1.E-3,),
                _F(NUME_ORDRE=10,
                   REFERENCE='ANALYTIQUE',
                   RESULTAT=RESU1,
                   NOM_CHAM='DEPL',
                   NOEUD='NO15',
                   NOM_CMP='PRE1',
                   VALE_CALC=0.532451525,
                   VALE_REFE=0.53190639724900002,
                   PRECISION=2.E-3,),
                _F(NUME_ORDRE=10,
                   REFERENCE='ANALYTIQUE',
                   RESULTAT=RESU1,
                   NOM_CHAM='DEPL',
                   NOEUD='NO17',
                   NOM_CMP='PRE1',
                   VALE_CALC=0.487552710,
                   VALE_REFE=0.48701271920799999,
                   PRECISION=2.E-3,),
                _F(NUME_ORDRE=10,
                   REFERENCE='ANALYTIQUE',
                   RESULTAT=RESU1,
                   NOM_CHAM='DEPL',
                   NOEUD='NO19',
                   NOM_CMP='PRE1',
                   VALE_CALC=0.437861313,
                   VALE_REFE=0.43733976256500001,
                   PRECISION=2.E-3,),
                _F(NUME_ORDRE=10,
                   REFERENCE='ANALYTIQUE',
                   RESULTAT=RESU1,
                   NOM_CHAM='DEPL',
                   NOEUD='NO21',
                   NOM_CMP='PRE1',
                   VALE_CALC=0.383831856,
                   VALE_REFE=0.38334387541999998,
                   PRECISION=2.E-3,),
                _F(NUME_ORDRE=10,
                   REFERENCE='ANALYTIQUE',
                   RESULTAT=RESU1,
                   NOM_CHAM='DEPL',
                   NOEUD='NO23',
                   NOM_CMP='PRE1',
                   VALE_CALC=0.325971077,
                   VALE_REFE=0.32553260623000002,
                   PRECISION=2.E-3,),
                _F(NUME_ORDRE=10,
                   REFERENCE='ANALYTIQUE',
                   RESULTAT=RESU1,
                   NOM_CHAM='DEPL',
                   NOEUD='NO25',
                   NOM_CMP='PRE1',
                   VALE_CALC=0.264834223,
                   VALE_REFE=0.26446088985100002,
                   PRECISION=2.E-3,),
                _F(NUME_ORDRE=10,
                   REFERENCE='ANALYTIQUE',
                   RESULTAT=RESU1,
                   NOM_CHAM='DEPL',
                   NOEUD='NO27',
                   NOM_CMP='PRE1',
                   VALE_CALC=0.201019871,
                   VALE_REFE=0.20072586065600001,
                   PRECISION=2.E-3,),
                _F(NUME_ORDRE=10,
                   REFERENCE='ANALYTIQUE',
                   RESULTAT=RESU1,
                   NOM_CHAM='DEPL',
                   NOEUD='NO29',
                   NOM_CMP='PRE1',
                   VALE_CALC=0.135163326,
                   VALE_REFE=0.13496032892099999,
                   PRECISION=2.E-3,),
                _F(NUME_ORDRE=10,
                   REFERENCE='ANALYTIQUE',
                   RESULTAT=RESU1,
                   NOM_CHAM='DEPL',
                   NOEUD='NO31',
                   NOM_CMP='PRE1',
                   VALE_CALC=0.067928711,
                   VALE_REFE=0.067825049763099998,
                   PRECISION=2.E-3,),
                _F(NUME_ORDRE=10,
                   REFERENCE='ANALYTIQUE',
                   RESULTAT=RESU1,
                   NOM_CHAM='DEPL',
                   NOEUD='NO33',
                   NOM_CMP='PRE1',
                   VALE_CALC=-3.15621432E-30,
                   VALE_REFE=4.2374899552299999E-17,
                   CRITERE='ABSOLU',
                   PRECISION=9.9999999999999995E-07,),
                ),
          )

TEST_RESU(RESU=(_F(NUME_ORDRE=1,
                   REFERENCE='ANALYTIQUE',
                   RESULTAT=RESU1,
                   NOM_CHAM='SIGM_ELNO',
                   NOEUD='NO48',
                   NOM_CMP='SIYY',
                   VALE_CALC=-2.12914058E-10,
                   VALE_REFE=0.0,
                   CRITERE='ABSOLU',
                   PRECISION=1.E-08,
                   MAILLE='MA15',),
                _F(NUME_ORDRE=10,
                   REFERENCE='ANALYTIQUE',
                   RESULTAT=RESU1,
                   NOM_CHAM='SIGM_ELNO',
                   NOEUD='NO34',
                   NOM_CMP='SIYY',
                   VALE_CALC=-0.314090225,
                   VALE_REFE=-0.31455423311000003,
                   PRECISION=2.E-3,
                   MAILLE='MA1',),
                _F(NUME_ORDRE=10,
                   REFERENCE='ANALYTIQUE',
                   RESULTAT=RESU1,
                   NOM_CHAM='SIGM_ELNO',
                   NOEUD='NO35',
                   NOM_CMP='SIYY',
                   VALE_CALC=-0.317324350,
                   VALE_REFE=-0.31779185283599998,
                   PRECISION=2.E-3,
                   MAILLE='MA2',),
                _F(NUME_ORDRE=10,
                   REFERENCE='ANALYTIQUE',
                   RESULTAT=RESU1,
                   NOM_CHAM='SIGM_ELNO',
                   NOEUD='NO36',
                   NOM_CMP='SIYY',
                   VALE_CALC=-0.327001493,
                   VALE_REFE=-0.32747895567000002,
                   PRECISION=2.E-3,
                   MAILLE='MA3',),
                _F(NUME_ORDRE=10,
                   REFERENCE='ANALYTIQUE',
                   RESULTAT=RESU1,
                   NOM_CHAM='SIGM_ELNO',
                   NOEUD='NO37',
                   NOM_CMP='SIYY',
                   VALE_CALC=-0.343045701,
                   VALE_REFE=-0.34353805373700003,
                   PRECISION=2.E-3,
                   MAILLE='MA4',),
                _F(NUME_ORDRE=10,
                   REFERENCE='ANALYTIQUE',
                   RESULTAT=RESU1,
                   NOM_CHAM='SIGM_ELNO',
                   NOEUD='NO38',
                   NOM_CMP='SIYY',
                   VALE_CALC=-0.365329543,
                   VALE_REFE=-0.36583931340699999,
                   PRECISION=2.E-3,
                   MAILLE='MA5',),
                _F(NUME_ORDRE=10,
                   REFERENCE='ANALYTIQUE',
                   RESULTAT=RESU1,
                   NOM_CHAM='SIGM_ELNO',
                   NOEUD='NO39',
                   NOM_CMP='SIYY',
                   VALE_CALC=-0.393673003,
                   VALE_REFE=-0.39419966860599998,
                   PRECISION=2.E-3,
                   MAILLE='MA6',),
                _F(NUME_ORDRE=10,
                   REFERENCE='ANALYTIQUE',
                   RESULTAT=RESU1,
                   NOM_CHAM='SIGM_ELNO',
                   NOEUD='NO40',
                   NOM_CMP='SIYY',
                   VALE_CALC=-0.427842241,
                   VALE_REFE=-0.428381854073,
                   PRECISION=2.E-3,
                   MAILLE='MA7',),
                _F(NUME_ORDRE=10,
                   REFERENCE='ANALYTIQUE',
                   RESULTAT=RESU1,
                   NOM_CHAM='SIGM_ELNO',
                   NOEUD='NO41',
                   NOM_CMP='SIYY',
                   VALE_CALC=-0.467548475,
                   VALE_REFE=-0.46809360275099998,
                   PRECISION=2.E-3,
                   MAILLE='MA8',),
                _F(NUME_ORDRE=10,
                   REFERENCE='ANALYTIQUE',
                   RESULTAT=RESU1,
                   NOM_CHAM='SIGM_ELNO',
                   NOEUD='NO42',
                   NOM_CMP='SIYY',
                   VALE_CALC=-0.512447290,
                   VALE_REFE=-0.51298728079199996,
                   PRECISION=2.E-3,
                   MAILLE='MA9',),
                _F(NUME_ORDRE=10,
                   REFERENCE='ANALYTIQUE',
                   RESULTAT=RESU1,
                   NOM_CHAM='SIGM_ELNO',
                   NOEUD='NO43',
                   NOM_CMP='SIYY',
                   VALE_CALC=-0.562138687,
                   VALE_REFE=-0.56266023743500004,
                   PRECISION=1.E-3,
                   MAILLE='MA10',),
                _F(NUME_ORDRE=10,
                   REFERENCE='ANALYTIQUE',
                   RESULTAT=RESU1,
                   NOM_CHAM='SIGM_ELNO',
                   NOEUD='NO44',
                   NOM_CMP='SIYY',
                   VALE_CALC=-0.616168144,
                   VALE_REFE=-0.61665612457999996,
                   PRECISION=1.E-3,
                   MAILLE='MA11',),
                _F(NUME_ORDRE=10,
                   REFERENCE='ANALYTIQUE',
                   RESULTAT=RESU1,
                   NOM_CHAM='SIGM_ELNO',
                   NOEUD='NO45',
                   NOM_CMP='SIYY',
                   VALE_CALC=-0.674028923,
                   VALE_REFE=-0.67446739376999998,
                   PRECISION=1.E-3,
                   MAILLE='MA12',),
                _F(NUME_ORDRE=10,
                   REFERENCE='ANALYTIQUE',
                   RESULTAT=RESU1,
                   NOM_CHAM='SIGM_ELNO',
                   NOEUD='NO46',
                   NOM_CMP='SIYY',
                   VALE_CALC=-0.735165777,
                   VALE_REFE=-0.73553911014899998,
                   PRECISION=1.E-3,
                   MAILLE='MA13',),
                _F(NUME_ORDRE=10,
                   REFERENCE='ANALYTIQUE',
                   RESULTAT=RESU1,
                   NOM_CHAM='SIGM_ELNO',
                   NOEUD='NO47',
                   NOM_CMP='SIYY',
                   VALE_CALC=-0.798980129,
                   VALE_REFE=-0.79927413934400005,
                   PRECISION=1.E-3,
                   MAILLE='MA14',),
                _F(NUME_ORDRE=10,
                   REFERENCE='ANALYTIQUE',
                   RESULTAT=RESU1,
                   NOM_CHAM='SIGM_ELNO',
                   NOEUD='NO48',
                   NOM_CMP='SIYY',
                   VALE_CALC=-0.864836674,
                   VALE_REFE=-0.86503967107900004,
                   PRECISION=1.E-3,
                   MAILLE='MA15',),
                _F(NUME_ORDRE=10,
                   REFERENCE='ANALYTIQUE',
                   RESULTAT=RESU1,
                   NOM_CHAM='SIGM_ELNO',
                   NOEUD='NO49',
                   NOM_CMP='SIYY',
                   VALE_CALC=-0.932071289,
                   VALE_REFE=-0.93217495023700003,
                   PRECISION=1.E-3,
                   MAILLE='MA16',),
                _F(NUME_ORDRE=10,
                   REFERENCE='ANALYTIQUE',
                   RESULTAT=RESU1,
                   NOM_CHAM='SIGM_ELNO',
                   NOEUD='NO50',
                   NOM_CMP='SIYY',
                   VALE_CALC=-1.000000000,
                   VALE_REFE=-1.0,
                   CRITERE='ABSOLU',
                   PRECISION=9.9999999999999995E-07,
                   MAILLE='MA16',),
                ),
          )

TEST_RESU(RESU=(_F(NUME_ORDRE=10,
                   RESULTAT=RESU1,
                   NOM_CHAM='SIEQ_ELNO',
                   NOEUD='NO50',
                   NOM_CMP='VMIS',
                   VALE_CALC=1.0,
                   TOLE_MACHINE=1.E-3,
                   MAILLE='MA16',),
                _F(NUME_ORDRE=10,
                   RESULTAT=RESU1,
                   NOM_CHAM='SIEQ_ELNO',
                   NOEUD='NO50',
                   NOM_CMP='VMIS_SG',
                   VALE_CALC=-1.0,
                   TOLE_MACHINE=1.E-3,
                   MAILLE='MA16',),
                _F(NUME_ORDRE=10,
                   RESULTAT=RESU1,
                   NOM_CHAM='SIEQ_ELNO',
                   NOEUD='NO50',
                   NOM_CMP='PRIN_1',
                   VALE_CALC=-1.0,
                   TOLE_MACHINE=1.E-3,
                   MAILLE='MA16',),
                _F(NUME_ORDRE=10,
                   RESULTAT=RESU1,
                   NOM_CHAM='SIEQ_ELNO',
                   NOEUD='NO50',
                   NOM_CMP='PRIN_2',
                   VALE_CALC=0.0,
                   CRITERE='ABSOLU',
                   MAILLE='MA16',
                   ),
                _F(NUME_ORDRE=10,
                   RESULTAT=RESU1,
                   NOM_CHAM='SIEQ_ELNO',
                   NOEUD='NO50',
                   NOM_CMP='PRIN_3',
                   VALE_CALC=0.0,
                   CRITERE='ABSOLU',
                   MAILLE='MA16',),
                _F(NUME_ORDRE=10,
                   RESULTAT=RESU1,
                   NOM_CHAM='SIEQ_ELNO',
                   NOEUD='NO50',
                   NOM_CMP='TRESCA',
                   VALE_CALC=1.0,
                   TOLE_MACHINE=1.E-3,
                   MAILLE='MA16',),
                ),
          )

FIN();
