# TITRE  - CONSOLIDATION TERZAGHI 2D Q8
# ======================================================================
# COPYRIGHT (C) 1991 - 2015  EDF R&D                  WWW.CODE-ASTER.ORG
# THIS PROGRAM IS FREE SOFTWARE; YOU CAN REDISTRIBUTE IT AND/OR MODIFY
# IT UNDER THE TERMS OF THE GNU GENERAL PUBLIC LICENSE AS PUBLISHED BY
# THE FREE SOFTWARE FOUNDATION; EITHER VERSION 2 OF THE LICENSE, OR
# (AT YOUR OPTION) ANY LATER VERSION.
#
# THIS PROGRAM IS DISTRIBUTED IN THE HOPE THAT IT WILL BE USEFUL, BUT
# WITHOUT ANY WARRANTY; WITHOUT EVEN THE IMPLIED WARRANTY OF
# MERCHANTABILITY OR FITNESS FOR A PARTICULAR PURPOSE. SEE THE GNU
# GENERAL PUBLIC LICENSE FOR MORE DETAILS.
#
# YOU SHOULD HAVE RECEIVED A COPY OF THE GNU GENERAL PUBLIC LICENSE
# ALONG WITH THIS PROGRAM; IF NOT, WRITE TO EDF R&D CODE_ASTER,
#    1 AVENUE DU GENERAL DE GAULLE, 92141 CLAMART CEDEX, FRANCE.
# ======================================================================
# tps_job 180 mem_job 200Mo ncpus 1 liste_test R

DEBUT(CODE=_F(
              NIV_PUB_WEB='INTERNET'),PAR_LOT='NON');

MAIL=LIRE_MAILLAGE(FORMAT='MED');

MODELE=AFFE_MODELE(MAILLAGE=MAIL,
                   AFFE=_F(TOUT='OUI',
                           PHENOMENE='MECANIQUE',
                           MODELISATION='D_PLAN_HMD'));

#  LISTE DES INSTANTS DE CALCUL

LI=DEFI_LIST_REEL(DEBUT=0.0,
                  INTERVALLE=(_F(JUSQU_A=1.E-4,
                                 NOMBRE=1),
                              _F(JUSQU_A=1.E-3,
                                 NOMBRE=9),
                              _F(JUSQU_A=1.E-2,
                                 NOMBRE=30),
                              _F(JUSQU_A=0.10000000000000001,
                                 NOMBRE=40),
                              _F(JUSQU_A=1.0,
                                 NOMBRE=50),
                              _F(JUSQU_A=10,
                                 NOMBRE=45),
                              _F(JUSQU_A=100,
                                 NOMBRE=47),
                              _F(JUSQU_A=250,
                                 NOMBRE=8)));

linst=LI.sdj.VALE.get()
lenlinst=len(linst)
p_inst_fin=linst[-1];

UN=DEFI_CONSTANTE(VALE=1.0);

ZERO=DEFI_CONSTANTE(VALE=0.0);

BIDON=DEFI_CONSTANTE(VALE=0.0);

#
#
#K=k*mu/(rhow*g)

KINT=DEFI_CONSTANTE(VALE=1.E-08);

#

MATERIAU=DEFI_MATERIAU(ELAS=_F(E=1.E7,
                               NU=0.0,
                               RHO=2800.0,
                               ALPHA=1.0000000000000001E-05),
                       COMP_THM='LIQU_SATU',
                       THM_INIT=_F(PRE1=1.E6,
                                   PORO=0.5,
                                   TEMP=293.0,
                                   PRE2=1.E5,
                                   PRES_VAPE=2320.0),
                       THM_DIFFU=_F(RHO=2800.0,
                                    BIOT_COEF=1.0,
                                    PESA_X=0.0,
                                    PESA_Y=0.0,
                                    PESA_Z=0.0,
                                    CP=660.0,
                                    PERM_IN=KINT,
                                    R_GAZ=8.3149999999999995,
                                    SATU_PRES=UN,
                                    D_SATU_PRES=ZERO,
                                    PERM_LIQU=UN,
                                    D_PERM_LIQU_SATU=ZERO,
                                    PERM_GAZ=BIDON,
                                    D_PERM_SATU_GAZ=BIDON,
                                    D_PERM_PRES_GAZ=BIDON),
                       THM_LIQU=_F(RHO=1000.0,
                                   UN_SUR_K=0.0,
                                   VISC=UN,
                                   D_VISC_TEMP=ZERO,
                                   ALPHA=1.E-4,
                                   CP=4180.0),
                       THM_GAZ=_F(MASS_MOL=0.02896,
                                  CP=1000.0,
                                  VISC=BIDON,
                                  D_VISC_TEMP=BIDON),
                       THM_VAPE_GAZ=_F(MASS_MOL=0.017999999999999999,
                                       CP=1870.0,
                                       VISC=BIDON,
                                       D_VISC_TEMP=BIDON));

CHMAT0=AFFE_MATERIAU(MAILLAGE=MAIL,
                     AFFE=_F(TOUT='OUI',
                             MATER=MATERIAU));

CHAR1=AFFE_CHAR_CINE(MODELE=MODELE,
                    MECA_IMPO=(_F(GROUP_NO='HAUT',
                                  PRE1=0.0),
                               _F(GROUP_NO='BAS',
                                  DX=0.0,
                                  DY=0.0),
                               _F(GROUP_NO='BORDVERT',
                                  DX=0.0)));

CHAR2=AFFE_CHAR_MECA(MODELE=MODELE,
                    PRES_REP=_F(GROUP_MA='FACESUP',
                                PRES=1.0));

RESU1=STAT_NON_LINE(MODELE=MODELE,
                    CHAM_MATER=CHMAT0,
                    EXCIT=(_F(CHARGE=CHAR1),
                           _F(CHARGE=CHAR2)),
                    COMPORTEMENT=_F(RELATION='KIT_HM',PARM_THETA=0.56999999999999995,
                                 RELATION_KIT=('ELAS','LIQU_SATU','HYDR_UTIL')),
                    INCREMENT=_F(LIST_INST=LI,
                                 INST_FIN=p_inst_fin),
                    NEWTON=_F(MATRICE='TANGENTE',REAC_INCR=3,REAC_ITER=0),
                    CONVERGENCE=_F(ITER_GLOB_MAXI=10),
                    SOLVEUR=_F(METHODE='MUMPS'),
#                    ARCHIVAGE=_F(INST=(0.0001,1.E-3,0.01,0.10000000000000001,1.0,10.0,50.212765959999999,100.0,193.75,250.0),
#                                 PRECISION=1.E-3),
);

MATPROJ = PROJ_CHAMP(METHODE='COLLOCATION',PROJECTION='NON',
               MAILLAGE_1=MAIL,
               MAILLAGE_2=MAIL)

RESU1=CALC_CHAMP(reuse=RESU1,
                 RESULTAT=RESU1,
                 CRITERES=('SIEQ_ELGA','SIEQ_ELNO','EPEQ_ELGA','EPEQ_ELNO'),
                 VARI_INTERNE=('VARI_ELNO'),
                 DEFORMATION=('EPSI_ELNO'),
                 CONTRAINTE=('SIEF_ELNO'))


RESU1=CALC_CHAMP(reuse =RESU1,
              RESULTAT=RESU1,
              CONTRAINTE='SIEF_NOEU',VARI_INTERNE='VARI_NOEU',CRITERES='SIEQ_NOEU');

SIGMA2=POST_RELEVE_T(ACTION=_F(OPERATION='EXTRACTION',
                               INTITULE='SIGMA',
                               RESULTAT=RESU1,
                               NOM_CHAM='SIEF_NOEU',
                               INST=(0.0001,0.001,0.01,0.1,1.0,10.0,50.21276596,100.0,193.75,250.0),
                               GROUP_NO='BORDVERT',
                               NOM_CMP=('SIXX','SIYY','SIZZ','SIXY')));

VARIN2=POST_RELEVE_T(ACTION=_F(OPERATION='EXTRACTION',
                               INTITULE='VARI',
                               RESULTAT=RESU1,
                               NOM_CHAM='VARI_NOEU',
                               INST=(0.0001,0.001,0.01,0.1,1.0,10.0,50.21276596,100.0,193.75,250.0),
                               GROUP_NO='BORDVERT',
                               TOUT_CMP='OUI'));

DEPLA2=POST_RELEVE_T(ACTION=_F(OPERATION='EXTRACTION',
                               INTITULE='DEPL',
                               RESULTAT=RESU1,
                               NOM_CHAM='DEPL',
                               INST=(0.0001,0.001,0.01,0.1,1.0,10.0,50.21276596,100.0,193.75,250.0),
                               GROUP_NO='BORDVERT',
                               TOUT_CMP='OUI'));

MODHYD=AFFE_MODELE(MAILLAGE=MAIL,
                   AFFE=_F(TOUT='OUI',
                           PHENOMENE='MECANIQUE',
                           MODELISATION='D_PLAN_HS'));

PREIMP=AFFE_CHAR_CINE(MODELE=MODHYD,
                      MECA_IMPO=_F(GROUP_NO='HAUT',
                                   PRE1=0));

CHAINAGE_THM(
             TYPE_CHAINAGE = 'INIT',
             MODELE_MECA   = MODELE,
             MODELE_HYDR   = MODHYD,
             MATR_MH       = CO('MATMH'),
             MATR_HM1      = CO('MATHM1'),
             MATR_HM2      = CO('MATHM2'),
);

for k in range(1,lenlinst) :

  UNPAS=DEFI_LIST_REEL(DEBUT=linst[k-1],
                       INTERVALLE=_F(JUSQU_A=linst[k],
                                     NOMBRE=1));

  UNPASSUB =DEFI_LIST_INST(DEFI_LIST=_F(LIST_INST =UNPAS ),
                           ECHEC=_F(
                                    SUBD_METHODE='MANUEL',
                                    SUBD_PAS  = 4,
                                    SUBD_NIVEAU=5));

  RESU1b=EXTR_RESU(RESULTAT=RESU1,ARCHIVAGE=_F(LIST_INST=UNPAS));

  DEFVHY=CHAINAGE_THM(RESU_MECA=RESU1b,
                      MODELE_HYDR=MODHYD,
                      MATR_MH=MATMH,
                      TYPE_CHAINAGE='MECA_HYDR',
                      INST=linst[k]);

  MATEHY=AFFE_MATERIAU(MAILLAGE=MAIL,
                      AFFE=_F(TOUT='OUI',
                              MATER=MATERIAU),
                      AFFE_VARC=_F(NOM_VARC='DIVU',
                                   EVOL=DEFVHY));

  if (k==1) :

    PRELIQ=STAT_NON_LINE(MODELE=MODHYD,
                        CHAM_MATER=MATEHY,
                        EXCIT=_F(CHARGE=PREIMP),NEWTON=_F(REAC_ITER=0),
                        SOLVEUR=_F(METHODE='MUMPS'),
                        CONVERGENCE=_F(RESI_GLOB_RELA=1e-7,
                                     ITER_GLOB_MAXI=50),
                        COMPORTEMENT=_F(RELATION='KIT_H',PARM_THETA=0.56999999999999995,
                                     RELATION_KIT=('LIQU_SATU','HYDR_UTIL')),
                        INCREMENT=_F(LIST_INST=UNPASSUB));

  else :

    PRELIQ=STAT_NON_LINE(reuse=PRELIQ,
                         MODELE=MODHYD,
                         CHAM_MATER=MATEHY,NEWTON=_F(REAC_ITER=0),
                         EXCIT=_F(CHARGE=PREIMP),
                         SOLVEUR=_F(METHODE='MUMPS'),
                         ETAT_INIT=_F(EVOL_NOLI=PRELIQ,
                                      INST=linst[k-1]),
                         CONVERGENCE=_F(RESI_GLOB_RELA=1e-7,
                                        ITER_GLOB_MAXI=50),
                         COMPORTEMENT=_F(RELATION='KIT_H',PARM_THETA=0.56999999999999995,
                                      RELATION_KIT=('LIQU_SATU','HYDR_UTIL')),
                         INCREMENT=_F(LIST_INST=UNPASSUB));

  DETRUIRE(INFO=1,CONCEPT=_F(NOM=(DEFVHY,UNPAS,UNPASSUB,MATEHY,RESU1b)));

TEST_RESU(RESU=(_F(INST=1.E-4,
                   REFERENCE='AUTRE_ASTER',
                   RESULTAT=PRELIQ,
                   NOM_CHAM='DEPL',
                   NOEUD='NO29',
                   NOM_CMP='PRE1',
                   VALE_CALC=0.999940871,
                   VALE_REFE=1.0,
                   TOLE_MACHINE=1.E-5,          # ajustement pour clap0f0q
                   PRECISION=2.0E-03,),
                _F(INST=1.E-4,
                   REFERENCE='AUTRE_ASTER',
                   RESULTAT=PRELIQ,
                   NOM_CHAM='DEPL',
                   NOEUD='NO31',
                   NOM_CMP='PRE1',
                   VALE_CALC=0.999940871,
                   VALE_REFE=1.0,
                   TOLE_MACHINE=1.E-5,          # ajustement pour clap0f0q
                   PRECISION=2.0E-03,),
                _F(INST=250.0,
                   REFERENCE='AUTRE_ASTER',
                   RESULTAT=PRELIQ,
                   NOM_CHAM='DEPL',
                   NOEUD='NO1',
                   NOM_CMP='PRE1',
                   VALE_CALC=0.685897268,
                   VALE_REFE=0.68544576689000003,
                   PRECISION=2.0E-03,),
                _F(INST=250.0,
                   REFERENCE='AUTRE_ASTER',
                   RESULTAT=PRELIQ,
                   NOM_CHAM='DEPL',
                   NOEUD='NO3',
                   NOM_CMP='PRE1',
                   VALE_CALC=0.682663076,
                   VALE_REFE=0.68220814716400002,
                   PRECISION=2.0E-03,),
                _F(INST=250.0,
                   REFERENCE='AUTRE_ASTER',
                   RESULTAT=PRELIQ,
                   NOM_CHAM='DEPL',
                   NOEUD='NO5',
                   NOM_CMP='PRE1',
                   VALE_CALC=0.672985739,
                   VALE_REFE=0.67252104433000004,
                   PRECISION=2.0E-03,),
                _F(INST=250.0,
                   REFERENCE='AUTRE_ASTER',
                   RESULTAT=PRELIQ,
                   NOM_CHAM='DEPL',
                   NOEUD='NO7',
                   NOM_CMP='PRE1',
                   VALE_CALC=0.656941248,
                   VALE_REFE=0.65646194626300003,
                   PRECISION=2.0E-03,),
                _F(INST=250.0,
                   REFERENCE='AUTRE_ASTER',
                   RESULTAT=PRELIQ,
                   NOM_CHAM='DEPL',
                   NOEUD='NO9',
                   NOM_CMP='PRE1',
                   VALE_CALC=0.634657087,
                   VALE_REFE=0.63416068659299996,
                   PRECISION=2.0E-03,),
                _F(INST=250.0,
                   REFERENCE='AUTRE_ASTER',
                   RESULTAT=PRELIQ,
                   NOM_CHAM='DEPL',
                   NOEUD='NO11',
                   NOM_CMP='PRE1',
                   VALE_CALC=0.606313338,
                   VALE_REFE=0.60580033139400002,
                   PRECISION=2.0E-03,),
                _F(INST=250.0,
                   REFERENCE='AUTRE_ASTER',
                   RESULTAT=PRELIQ,
                   NOM_CHAM='DEPL',
                   NOEUD='NO13',
                   NOM_CMP='PRE1',
                   VALE_CALC=0.572143916,
                   VALE_REFE=0.571618145927,
                   PRECISION=2.0E-03,),
                _F(INST=250.0,
                   REFERENCE='AUTRE_ASTER',
                   RESULTAT=PRELIQ,
                   NOM_CHAM='DEPL',
                   NOEUD='NO15',
                   NOM_CMP='PRE1',
                   VALE_CALC=0.532437682,
                   VALE_REFE=0.53190639724900002,
                   PRECISION=2.0E-03,),
                _F(INST=250.0,
                   REFERENCE='AUTRE_ASTER',
                   RESULTAT=PRELIQ,
                   NOM_CHAM='DEPL',
                   NOEUD='NO17',
                   NOM_CMP='PRE1',
                   VALE_CALC=0.487539122,
                   VALE_REFE=0.48701271920799999,
                   PRECISION=2.0E-03,),
                _F(INST=250.0,
                   REFERENCE='AUTRE_ASTER',
                   RESULTAT=PRELIQ,
                   NOM_CHAM='DEPL',
                   NOEUD='NO19',
                   NOM_CMP='PRE1',
                   VALE_CALC=0.437848291,
                   VALE_REFE=0.43733976256500001,
                   PRECISION=2.0E-03,),
                _F(INST=250.0,
                   REFERENCE='AUTRE_ASTER',
                   RESULTAT=PRELIQ,
                   NOM_CHAM='DEPL',
                   NOEUD='NO21',
                   NOM_CMP='PRE1',
                   VALE_CALC=0.383819752,
                   VALE_REFE=0.38334387541999998,
                   PRECISION=2.0E-03,),
                _F(INST=250.0,
                   REFERENCE='AUTRE_ASTER',
                   RESULTAT=PRELIQ,
                   NOM_CHAM='DEPL',
                   NOEUD='NO23',
                   NOM_CMP='PRE1',
                   VALE_CALC=0.325960259,
                   VALE_REFE=0.32553260623000002,
                   PRECISION=2.0E-03,),
                _F(INST=250.0,
                   REFERENCE='AUTRE_ASTER',
                   RESULTAT=PRELIQ,
                   NOM_CHAM='DEPL',
                   NOEUD='NO25',
                   NOM_CMP='PRE1',
                   VALE_CALC=0.264825051,
                   VALE_REFE=0.26446088985100002,
                   PRECISION=2.0E-03,),
                _F(INST=250.0,
                   REFERENCE='AUTRE_ASTER',
                   RESULTAT=PRELIQ,
                   NOM_CHAM='DEPL',
                   NOEUD='NO27',
                   NOM_CMP='PRE1',
                   VALE_CALC=0.201012673,
                   VALE_REFE=0.20072586065600001,
                   PRECISION=2.0E-03,),
                _F(INST=250.0,
                   REFERENCE='AUTRE_ASTER',
                   RESULTAT=PRELIQ,
                   NOM_CHAM='DEPL',
                   NOEUD='NO29',
                   NOM_CMP='PRE1',
                   VALE_CALC=0.135158368,
                   VALE_REFE=0.13496032892099999,
                   PRECISION=2.0E-03,),
                _F(INST=250.0,
                   REFERENCE='AUTRE_ASTER',
                   RESULTAT=PRELIQ,
                   NOM_CHAM='DEPL',
                   NOEUD='NO31',
                   NOM_CMP='PRE1',
                   VALE_CALC=0.067926183,
                   VALE_REFE=0.067825049763099998,
                   PRECISION=2.0E-03,),
                _F(INST=250.0,
                   REFERENCE='AUTRE_ASTER',
                   RESULTAT=PRELIQ,
                   NOM_CHAM='DEPL',
                   NOEUD='NO33',
                   NOM_CMP='PRE1',
                   VALE_CALC= 0.00000000E+00,
                   VALE_REFE=0.0,
                   CRITERE='ABSOLU',
                   PRECISION=2.0E-03,),
                ),
          )

FIN();
