# ======================================================================
# TITRE  - CONSOLIDATION TERZAGHI 2D Q8
# ======================================================================
# COPYRIGHT (C) 1991 - 2015  EDF R&D                  WWW.CODE-ASTER.ORG
# THIS PROGRAM IS FREE SOFTWARE; YOU CAN REDISTRIBUTE IT AND/OR MODIFY
# IT UNDER THE TERMS OF THE GNU GENERAL PUBLIC LICENSE AS PUBLISHED BY
# THE FREE SOFTWARE FOUNDATION; EITHER VERSION 2 OF THE LICENSE, OR
# (AT YOUR OPTION) ANY LATER VERSION.
#
# THIS PROGRAM IS DISTRIBUTED IN THE HOPE THAT IT WILL BE USEFUL, BUT
# WITHOUT ANY WARRANTY; WITHOUT EVEN THE IMPLIED WARRANTY OF
# MERCHANTABILITY OR FITNESS FOR A PARTICULAR PURPOSE. SEE THE GNU
# GENERAL PUBLIC LICENSE FOR MORE DETAILS.
#
# YOU SHOULD HAVE RECEIVED A COPY OF THE GNU GENERAL PUBLIC LICENSE
# ALONG WITH THIS PROGRAM; IF NOT, WRITE TO EDF R&D CODE_ASTER,
#    1 AVENUE DU GENERAL DE GAULLE, 92141 CLAMART CEDEX, FRANCE.
# ======================================================================
# ======================================================================

DEBUT(CODE=_F(NIV_PUB_WEB='INTERNET',VISU_EFICAS='NON'),DEBUG=_F(SDVERI='OUI'))

MAIL=LIRE_MAILLAGE(FORMAT='MED');

MODELE=AFFE_MODELE(MAILLAGE=MAIL,
                   AFFE=_F(TOUT='OUI',
                           PHENOMENE='MECANIQUE',
                           MODELISATION='D_PLAN_HMS'));
#  LISTE DES INSTANTS DE CALCUL

LI=DEFI_LIST_REEL(DEBUT=0.0,
                  INTERVALLE=(_F(JUSQU_A=0.0001,
                                 NOMBRE=1),
                              _F(JUSQU_A=0.001,
                                 NOMBRE=9),
                              _F(JUSQU_A=0.01,
                                 NOMBRE=30),
                              _F(JUSQU_A=0.1,
                                 NOMBRE=40),
                              _F(JUSQU_A=1.0,
                                 NOMBRE=50),
                              _F(JUSQU_A=10,
                                 NOMBRE=45),
                              _F(JUSQU_A=100,
                                 NOMBRE=47),
                              _F(JUSQU_A=1000,
                                 NOMBRE=48),
                              _F(JUSQU_A=10000,
                                 NOMBRE=50)));

UN=DEFI_CONSTANTE(VALE=1.0);

ZERO=DEFI_CONSTANTE(VALE=0.0);

BIDON=DEFI_CONSTANTE(VALE=0.0);
#
#
#K=k*mu/(rhow*g)

KINT=DEFI_CONSTANTE(VALE=1e-08);
#

MATERIAU=DEFI_MATERIAU(ELAS=_F(E=10000000.0,
                               NU=0.0,
                               RHO=2800.0,
                               ALPHA=1e-05),
                       COMP_THM='LIQU_SATU',
                       THM_INIT=_F(
                       PRE1=1000000.0,
                       PORO=0.5,
                       TEMP=293.0,
                       PRE2=100000.0,
                       PRES_VAPE=2320.0),
                       THM_DIFFU=_F(
                       RHO=2800.0,
                       BIOT_COEF=1.0,
                       PESA_X=0.0,
                       PESA_Y=0.0,
                       PESA_Z=0.0,
                       CP=660.0,
                       PERM_IN=KINT,
                       R_GAZ=8.315,
                       SATU_PRES=UN,
                       D_SATU_PRES=ZERO,
                       PERM_LIQU=UN,
                       D_PERM_LIQU_SATU=ZERO,
                       PERM_GAZ=BIDON,
                       D_PERM_SATU_GAZ=BIDON,
                       D_PERM_PRES_GAZ=BIDON),
                       THM_LIQU=_F(
                       RHO=1000.0,
                       UN_SUR_K=0.0,
                       VISC=UN,
                       D_VISC_TEMP=ZERO,
                       ALPHA=0.0001,
                       CP=4180.0),
                       THM_GAZ=_F(
                       MASS_MOL=0.02896,
                       CP=1000.0,
                       VISC=BIDON,
                       D_VISC_TEMP=BIDON),
                       THM_VAPE_GAZ=_F(
                       MASS_MOL=0.018,
                       CP=1870.0,
                       VISC=BIDON,
                       D_VISC_TEMP=BIDON));

CHMAT0=AFFE_MATERIAU(MAILLAGE=MAIL,
                     AFFE=_F(TOUT='OUI',
                             MATER=MATERIAU));

CHAR=AFFE_CHAR_MECA(MODELE=MODELE,
                    DDL_IMPO=(_F(GROUP_NO='HAUT',
                                 PRE1=0.0),
                              _F(GROUP_NO='BAS',
                                 DX=0.0,
                                 DY=0.0),
                              _F(GROUP_NO='BORDVERT',
                                 DX=0.0)),
                    PRES_REP=_F(GROUP_MA='FACESUP',
                                PRES=1.0));

linst = [0,0.0001,0.001,0.01,0.1,1.0,10.0,50.21276596,100.0,193.75,250.0];
nbinst = len(linst);

RESU1=STAT_NON_LINE(MODELE=MODELE,
                    CHAM_MATER=CHMAT0,
                    EXCIT=_F(CHARGE=CHAR),
                    COMPORTEMENT=_F(RELATION='KIT_HM',PARM_THETA=0.57,
                                 RELATION_KIT=('ELAS','LIQU_SATU','HYDR_UTIL')),
                    INCREMENT=_F(LIST_INST=LI,
                                 INST_FIN=250.0),
                    NEWTON=_F(MATRICE='TANGENTE',
                              REAC_ITER=1),
                    CONVERGENCE=_F(ITER_GLOB_MAXI=10),
                    SOLVEUR=_F(METHODE='MUMPS',
   ),
                    ARCHIVAGE=_F(INST=linst,
                                 PRECISION=0.001));



#############################################

RESU1=CALC_CHAMP(reuse=RESU1,CRITERES=('SIEQ_ELNO'),VARI_INTERNE=('VARI_ELNO'),CONTRAINTE=('SIEF_ELNO'),RESULTAT=RESU1)


RESU1= CALC_CHAMP( reuse    = RESU1,
                   RESULTAT = RESU1,
                   CONTRAINTE='SIEF_NOEU',VARI_INTERNE='VARI_NOEU'
                  )
##########################################################
# EXEMPLE DE POST-TRAITEMENT D ISOVALEURS POUR MODELISATION SELECTIVE #
##########################################################

########
# 1ere methode de projection par proj_champ
########

MAILLIN = CREA_MAILLAGE(
                         MAILLAGE  = MAIL,
                         QUAD_LINE = _F(TOUT = 'OUI'),
                       )

MAILLIN=DEFI_GROUP(reuse =MAILLIN,
                   MAILLAGE=MAILLIN,
                   CREA_GROUP_NO=_F(TOUT_GROUP_MA='OUI'));

MODELIN=AFFE_MODELE(MAILLAGE=MAILLIN,
                   AFFE=_F(TOUT='OUI',
                           PHENOMENE='MECANIQUE',
                           MODELISATION='D_PLAN'));

RESULIN = PROJ_CHAMP(
               METHODE='COLLOCATION',
               RESULTAT=RESU1,
               MODELE_1=MODELE,
               MODELE_2=MODELIN,
               NOM_CHAM ='DEPL',
               )

########
# 2eme methode de projection par macr_adap_mail
########

PRE  = [None]*nbinst;
PREB = [None]*nbinst;

for k in range(nbinst) :

  PRE[k]=CREA_CHAMP(TYPE_CHAM='NOEU_DEPL_R',
                    OPERATION='EXTR',
                    RESULTAT=RESU1,
                    NOM_CHAM='DEPL',
                    INST=linst[k]);

motcle1={}
motcle2={}

motcle1['MAJ_CHAM']=[]
motcle2['AFFE']=[]

for k in range(nbinst) :

  PREB[k] =CO('PREB_%d' % (k))

  motcle1['MAJ_CHAM'].append(
  _F(TYPE_CHAM='NOEU_DEPL_R',CHAM_GD  = PRE[k],
                                  CHAM_MAJ = PREB[k]));

  motcle2['AFFE'].append(
  _F(CHAM_GD=PREB[k],INST=linst[k]));

MACR_ADAP_MAIL( ADAPTATION='MODIFICATION',DEGRE='OUI',
                MAILLAGE_N   = MAIL,
                MAILLAGE_NP1 = CO('MAILLIN2'),
                **motcle1);

RESULINB=CREA_RESU(OPERATION='AFFE',TYPE_RESU='EVOL_NOLI',NOM_CHAM='DEPL',**motcle2);

#####
# On verifie que les 2 methodes de projection donnent le meme resultat
#####

RESULINC = PROJ_CHAMP(
               METHODE='COLLOCATION',
               RESULTAT=RESULINB,
               MAILLAGE_1=MAILLIN2,
               MAILLAGE_2=MAILLIN,
               NOM_CHAM ='DEPL')

EXTR1=POST_RELEVE_T(ACTION=_F(OPERATION='EXTRACTION',
                              INTITULE='MAIL',
                              RESULTAT=RESULIN,
                              NOM_CHAM='DEPL',
                              GROUP_NO='COUL_7',

                              NOM_CMP='PRE1'));

INCNUM = FORMULE(VALE='NUMAUX+1',
                 NOM_PARA='NUMAUX');

EXTR1=CALC_TABLE(   reuse=EXTR1,
                    TABLE=EXTR1,
                    ACTION=(
                           _F(OPERATION='RENOMME',
                              NOM_PARA=('NUME_ORDRE','NUMAUX')),
                           _F(OPERATION='OPER',
                              FORMULE=INCNUM,
                              NOM_PARA='NUME_ORDRE'),

                 ));

EXTR2=POST_RELEVE_T(ACTION=_F(OPERATION='EXTRACTION',
                              INTITULE='MAIL',
                              RESULTAT=RESULINC,
                              NOM_CHAM='DEPL',
                              GROUP_NO='COUL_7',

                              NOM_CMP='PRE1'));

EXTR2=CALC_TABLE(reuse=EXTR2,TABLE=EXTR2,
                 ACTION=(_F(OPERATION='RENOMME',NOM_PARA=('PRE1','PREPROJ')),
                         )
                  )

EXTR1=CALC_TABLE(reuse=EXTR1,TABLE=EXTR1,
                 ACTION=(_F(OPERATION='COMB',TABLE=EXTR2,NOM_PARA=('NUME_ORDRE','NOEUD')),
                         )
                  )

DIFF = FORMULE(VALE='abs(PREPROJ-PRE1)',
                 NOM_PARA=('PREPROJ','PRE1'));

TBDIF=CALC_TABLE(   TABLE=EXTR1,
                    ACTION=_F(OPERATION='OPER',
                              FORMULE=DIFF,
                              NOM_PARA='DIFF'));

TEST_TABLE(CRITERE='ABSOLU',
           VALE_CALC=1.0000000000000001E-09,
           NOM_PARA='DIFF',
           TYPE_TEST='MAX',
           TABLE=TBDIF,)

########
# Fin de la verification
########

IMPR_RESU(RESU=_F( RESULTAT = RESULIN,
                   INST     = 250.0,
                   NOM_CHAM ='DEPL',
                   ))

IMPR_RESU(FORMAT = 'IDEAS', UNITE = 30,
          RESU=_F( RESULTAT = RESULIN,
                   MAILLAGE=MAILLIN,
                   NOM_CHAM ='DEPL',
                   NOM_CMP  ='PRE1',
                   TOUT_ORDRE = 'OUI') )


RESULINS = PROJ_CHAMP(
               METHODE='COLLOCATION',
               RESULTAT=RESU1,
               MODELE_1=MODELE,
               MODELE_2=MODELIN,
               NOM_CHAM ='SIEF_NOEU',
               INST = 250.)

IMPR_RESU(FORMAT = 'GMSH', UNITE = 37,
          RESU=_F( RESULTAT = RESULINS,
                   MAILLAGE=MAILLIN,
                   NOM_CHAM ='SIEF_NOEU',
                   NOM_CMP  ='SIYY',
                   INST=250.));


#############
SIGMA2=POST_RELEVE_T(ACTION=_F(INTITULE='SIGMA',
                            RESULTAT=RESU1,
                                           GROUP_NO ='BORDVERT',
                                           INST = (0.0001,0.001,0.01,0.1,1.0,10.0,50.21276596,100.0,193.75,250.0),
                            NOM_CHAM='SIEF_NOEU',
                            NOM_CMP=('SIXX','SIYY','SIZZ','SIXY'),
                            OPERATION='EXTRACTION'));

VARIN2=POST_RELEVE_T(ACTION=_F(INTITULE='VARI',
                               RESULTAT=RESU1,
                                              GROUP_NO = 'BORDVERT',
                               NOM_CHAM='VARI_NOEU',
                               TOUT_CMP='OUI',
                                              INST=(0.0001,0.001,0.01,0.1,1.0,10.0,50.21276596,100.0,193.75,250.0),
                               OPERATION='EXTRACTION'));

DEPLA2=POST_RELEVE_T(ACTION=_F(INTITULE='DEPL',
                               RESULTAT=RESU1,
                                              GROUP_NO = 'BORDVERT',
                                              INST=(0.0001,0.001,0.01,0.1,1.0,10.0,50.21276596,100.0,193.75,250.0),
                               NOM_CHAM='DEPL',
                                              TOUT_CMP = 'OUI',
                               OPERATION='EXTRACTION'));

IMPR_TABLE(TABLE=SIGMA2);
IMPR_TABLE(TABLE=VARIN2);
IMPR_TABLE(TABLE=DEPLA2);

TEST_RESU(RESU=(_F(INST=1.E-4,
                   REFERENCE='ANALYTIQUE',
                   RESULTAT=RESU1,
                   NOM_CHAM='DEPL',
                   NOEUD='NO29',
                   NOM_CMP='PRE1',
                   VALE_CALC=1.000000000,
                   VALE_REFE=1.0,
                   PRECISION=1.E-3,),
                _F(INST=1.E-4,
                   REFERENCE='ANALYTIQUE',
                   RESULTAT=RESU1,
                   NOM_CHAM='DEPL',
                   NOEUD='NO31',
                   NOM_CMP='PRE1',
                   VALE_CALC=0.999985408,
                   VALE_REFE=1.0,
                   PRECISION=1.E-3,),
                _F(INST=250.0,
                   REFERENCE='ANALYTIQUE',
                   RESULTAT=RESU1,
                   NOM_CHAM='DEPL',
                   NOEUD='NO1',
                   NOM_CMP='PRE1',
                   VALE_CALC=0.685909775,
                   VALE_REFE=0.68544576689000003,
                   PRECISION=1.E-3,),
                _F(INST=250.0,
                   REFERENCE='ANALYTIQUE',
                   RESULTAT=RESU1,
                   NOM_CHAM='DEPL',
                   NOEUD='NO3',
                   NOM_CMP='PRE1',
                   VALE_CALC=0.682675650,
                   VALE_REFE=0.68220814716400002,
                   PRECISION=1.E-3,),
                _F(INST=250.0,
                   REFERENCE='ANALYTIQUE',
                   RESULTAT=RESU1,
                   NOM_CHAM='DEPL',
                   NOEUD='NO5',
                   NOM_CMP='PRE1',
                   VALE_CALC=0.672998507,
                   VALE_REFE=0.67252104433000004,
                   PRECISION=1.E-3,),
                _F(INST=250.0,
                   REFERENCE='ANALYTIQUE',
                   RESULTAT=RESU1,
                   NOM_CHAM='DEPL',
                   NOEUD='NO7',
                   NOM_CMP='PRE1',
                   VALE_CALC=0.656954299,
                   VALE_REFE=0.65646194626300003,
                   PRECISION=1.E-3,),
                _F(INST=250.0,
                   REFERENCE='ANALYTIQUE',
                   RESULTAT=RESU1,
                   NOM_CHAM='DEPL',
                   NOEUD='NO9',
                   NOM_CMP='PRE1',
                   VALE_CALC=0.634670457,
                   VALE_REFE=0.63416068659299996,
                   PRECISION=1.E-3,),
                _F(INST=250.0,
                   REFERENCE='ANALYTIQUE',
                   RESULTAT=RESU1,
                   NOM_CHAM='DEPL',
                   NOEUD='NO11',
                   NOM_CMP='PRE1',
                   VALE_CALC=0.606326997,
                   VALE_REFE=0.60580033139400002,
                   PRECISION=1.E-3,),
                _F(INST=250.0,
                   REFERENCE='ANALYTIQUE',
                   RESULTAT=RESU1,
                   NOM_CHAM='DEPL',
                   NOEUD='NO13',
                   NOM_CMP='PRE1',
                   VALE_CALC=0.572157759,
                   VALE_REFE=0.571618145927,
                   PRECISION=1.E-3,),
                _F(INST=250.0,
                   REFERENCE='ANALYTIQUE',
                   RESULTAT=RESU1,
                   NOM_CHAM='DEPL',
                   NOEUD='NO15',
                   NOM_CMP='PRE1',
                   VALE_CALC=0.532451525,
                   VALE_REFE=0.53190639724900002,
                   PRECISION=2.E-3,),
                _F(INST=250.0,
                   REFERENCE='ANALYTIQUE',
                   RESULTAT=RESU1,
                   NOM_CHAM='DEPL',
                   NOEUD='NO17',
                   NOM_CMP='PRE1',
                   VALE_CALC=0.487552710,
                   VALE_REFE=0.48701271920799999,
                   PRECISION=2.E-3,),
                _F(INST=250.0,
                   REFERENCE='ANALYTIQUE',
                   RESULTAT=RESU1,
                   NOM_CHAM='DEPL',
                   NOEUD='NO19',
                   NOM_CMP='PRE1',
                   VALE_CALC=0.437861313,
                   VALE_REFE=0.43733976256500001,
                   PRECISION=2.E-3,),
                _F(INST=250.0,
                   REFERENCE='ANALYTIQUE',
                   RESULTAT=RESU1,
                   NOM_CHAM='DEPL',
                   NOEUD='NO21',
                   NOM_CMP='PRE1',
                   VALE_CALC=0.383831856,
                   VALE_REFE=0.38334387541999998,
                   PRECISION=2.E-3,),
                _F(INST=250.0,
                   REFERENCE='ANALYTIQUE',
                   RESULTAT=RESU1,
                   NOM_CHAM='DEPL',
                   NOEUD='NO23',
                   NOM_CMP='PRE1',
                   VALE_CALC=0.325971077,
                   VALE_REFE=0.32553260623000002,
                   PRECISION=2.E-3,),
                _F(INST=250.0,
                   REFERENCE='ANALYTIQUE',
                   RESULTAT=RESU1,
                   NOM_CHAM='DEPL',
                   NOEUD='NO25',
                   NOM_CMP='PRE1',
                   VALE_CALC=0.264834223,
                   VALE_REFE=0.26446088985100002,
                   PRECISION=2.E-3,),
                _F(INST=250.0,
                   REFERENCE='ANALYTIQUE',
                   RESULTAT=RESU1,
                   NOM_CHAM='DEPL',
                   NOEUD='NO27',
                   NOM_CMP='PRE1',
                   VALE_CALC=0.201019871,
                   VALE_REFE=0.20072586065600001,
                   PRECISION=2.E-3,),
                _F(INST=250.0,
                   REFERENCE='ANALYTIQUE',
                   RESULTAT=RESU1,
                   NOM_CHAM='DEPL',
                   NOEUD='NO29',
                   NOM_CMP='PRE1',
                   VALE_CALC=0.135163326,
                   VALE_REFE=0.13496032892099999,
                   PRECISION=2.E-3,),
                _F(INST=250.0,
                   REFERENCE='ANALYTIQUE',
                   RESULTAT=RESU1,
                   NOM_CHAM='DEPL',
                   NOEUD='NO31',
                   NOM_CMP='PRE1',
                   VALE_CALC=0.067928711,
                   VALE_REFE=0.067825049763099998,
                   PRECISION=2.E-3,),
                _F(INST=250.0,
                   REFERENCE='ANALYTIQUE',
                   RESULTAT=RESU1,
                   NOM_CHAM='DEPL',
                   NOEUD='NO33',
                   NOM_CMP='PRE1',
                   VALE_CALC= 0.00000000E+00,
                   VALE_REFE=4.2374899552299999E-17,
                   CRITERE='ABSOLU',
                   PRECISION=9.9999999999999995E-07,),
                ),
          )

TEST_RESU(RESU=(_F(INST=1.E-4,
                   REFERENCE='ANALYTIQUE',
                   RESULTAT=RESU1,
                   NOM_CHAM='SIEF_ELNO',
                   NOEUD='NO48',
                   NOM_CMP='SIYY',
                   VALE_CALC=-2.12914197E-10,
                   VALE_REFE=0.0,
                   CRITERE='ABSOLU',
                   PRECISION=1.E-08,
                   MAILLE='MA15',),
                _F(INST=250.0,
                   REFERENCE='ANALYTIQUE',
                   RESULTAT=RESU1,
                   NOM_CHAM='SIEF_ELNO',
                   NOEUD='NO34',
                   NOM_CMP='SIYY',
                   VALE_CALC=-0.314090225,
                   VALE_REFE=-0.31455423311000003,
                   PRECISION=2.E-3,
                   MAILLE='MA1',),
                _F(INST=250.0,
                   REFERENCE='ANALYTIQUE',
                   RESULTAT=RESU1,
                   NOM_CHAM='SIEF_ELNO',
                   NOEUD='NO35',
                   NOM_CMP='SIYY',
                   VALE_CALC=-0.317324350,
                   VALE_REFE=-0.31779185283599998,
                   PRECISION=2.E-3,
                   MAILLE='MA2',),
                _F(INST=250.0,
                   REFERENCE='ANALYTIQUE',
                   RESULTAT=RESU1,
                   NOM_CHAM='SIEF_ELNO',
                   NOEUD='NO36',
                   NOM_CMP='SIYY',
                   VALE_CALC=-0.327001493,
                   VALE_REFE=-0.32747895567000002,
                   PRECISION=2.E-3,
                   MAILLE='MA3',),
                _F(INST=250.0,
                   REFERENCE='ANALYTIQUE',
                   RESULTAT=RESU1,
                   NOM_CHAM='SIEF_ELNO',
                   NOEUD='NO37',
                   NOM_CMP='SIYY',
                   VALE_CALC=-0.343045701,
                   VALE_REFE=-0.34353805373700003,
                   PRECISION=2.E-3,
                   MAILLE='MA4',),
                _F(INST=250.0,
                   REFERENCE='ANALYTIQUE',
                   RESULTAT=RESU1,
                   NOM_CHAM='SIEF_ELNO',
                   NOEUD='NO38',
                   NOM_CMP='SIYY',
                   VALE_CALC=-0.365329543,
                   VALE_REFE=-0.36583931340699999,
                   PRECISION=2.E-3,
                   MAILLE='MA5',),
                _F(INST=250.0,
                   REFERENCE='ANALYTIQUE',
                   RESULTAT=RESU1,
                   NOM_CHAM='SIEF_ELNO',
                   NOEUD='NO39',
                   NOM_CMP='SIYY',
                   VALE_CALC=-0.393673003,
                   VALE_REFE=-0.39419966860599998,
                   PRECISION=2.E-3,
                   MAILLE='MA6',),
                _F(INST=250.0,
                   REFERENCE='ANALYTIQUE',
                   RESULTAT=RESU1,
                   NOM_CHAM='SIEF_ELNO',
                   NOEUD='NO40',
                   NOM_CMP='SIYY',
                   VALE_CALC=-0.427842241,
                   VALE_REFE=-0.428381854073,
                   PRECISION=2.E-3,
                   MAILLE='MA7',),
                _F(INST=250.0,
                   REFERENCE='ANALYTIQUE',
                   RESULTAT=RESU1,
                   NOM_CHAM='SIEF_ELNO',
                   NOEUD='NO41',
                   NOM_CMP='SIYY',
                   VALE_CALC=-0.467548475,
                   VALE_REFE=-0.46809360275099998,
                   PRECISION=2.E-3,
                   MAILLE='MA8',),
                _F(INST=250.0,
                   REFERENCE='ANALYTIQUE',
                   RESULTAT=RESU1,
                   NOM_CHAM='SIEF_ELNO',
                   NOEUD='NO42',
                   NOM_CMP='SIYY',
                   VALE_CALC=-0.512447290,
                   VALE_REFE=-0.51298728079199996,
                   PRECISION=2.E-3,
                   MAILLE='MA9',),
                _F(INST=250.0,
                   REFERENCE='ANALYTIQUE',
                   RESULTAT=RESU1,
                   NOM_CHAM='SIEF_ELNO',
                   NOEUD='NO43',
                   NOM_CMP='SIYY',
                   VALE_CALC=-0.562138687,
                   VALE_REFE=-0.56266023743500004,
                   PRECISION=1.E-3,
                   MAILLE='MA10',),
                _F(INST=250.0,
                   REFERENCE='ANALYTIQUE',
                   RESULTAT=RESU1,
                   NOM_CHAM='SIEF_ELNO',
                   NOEUD='NO44',
                   NOM_CMP='SIYY',
                   VALE_CALC=-0.616168144,
                   VALE_REFE=-0.61665612457999996,
                   PRECISION=1.E-3,
                   MAILLE='MA11',),
                _F(INST=250.0,
                   REFERENCE='ANALYTIQUE',
                   RESULTAT=RESU1,
                   NOM_CHAM='SIEF_ELNO',
                   NOEUD='NO45',
                   NOM_CMP='SIYY',
                   VALE_CALC=-0.674028923,
                   VALE_REFE=-0.67446739376999998,
                   PRECISION=1.E-3,
                   MAILLE='MA12',),
                _F(INST=250.0,
                   REFERENCE='ANALYTIQUE',
                   RESULTAT=RESU1,
                   NOM_CHAM='SIEF_ELNO',
                   NOEUD='NO46',
                   NOM_CMP='SIYY',
                   VALE_CALC=-0.735165777,
                   VALE_REFE=-0.73553911014899998,
                   PRECISION=1.E-3,
                   MAILLE='MA13',),
                _F(INST=250.0,
                   REFERENCE='ANALYTIQUE',
                   RESULTAT=RESU1,
                   NOM_CHAM='SIEF_ELNO',
                   NOEUD='NO47',
                   NOM_CMP='SIYY',
                   VALE_CALC=-0.798980129,
                   VALE_REFE=-0.79927413934400005,
                   PRECISION=1.E-3,
                   MAILLE='MA14',),
                _F(INST=250.0,
                   REFERENCE='ANALYTIQUE',
                   RESULTAT=RESU1,
                   NOM_CHAM='SIEF_ELNO',
                   NOEUD='NO48',
                   NOM_CMP='SIYY',
                   VALE_CALC=-0.864836674,
                   VALE_REFE=-0.86503967107900004,
                   PRECISION=1.E-3,
                   MAILLE='MA15',),
                _F(INST=250.0,
                   REFERENCE='ANALYTIQUE',
                   RESULTAT=RESU1,
                   NOM_CHAM='SIEF_ELNO',
                   NOEUD='NO49',
                   NOM_CMP='SIYY',
                   VALE_CALC=-0.932071289,
                   VALE_REFE=-0.93217495023700003,
                   PRECISION=1.E-3,
                   MAILLE='MA16',),
                _F(INST=250.0,
                   REFERENCE='ANALYTIQUE',
                   RESULTAT=RESU1,
                   NOM_CHAM='SIEF_ELNO',
                   NOEUD='NO50',
                   NOM_CMP='SIYY',
                   VALE_CALC=-1.000000000,
                   VALE_REFE=-1.0,
                   CRITERE='ABSOLU',
                   PRECISION=9.9999999999999995E-07,
                   MAILLE='MA16',),
                ),
          )

TEST_RESU(RESU=(_F(INST=250.0,
                   RESULTAT=RESU1,
                   NOM_CHAM='SIEQ_ELNO',
                   NOEUD='NO50',
                   NOM_CMP='VMIS',
                   VALE_CALC=0.98923373070389997,
                   MAILLE='MA16',
                   ),
                _F(INST=250.0,
                   RESULTAT=RESU1,
                   NOM_CHAM='SIEQ_ELNO',
                   NOEUD='NO50',
                   NOM_CMP='VMIS_SG',
                   VALE_CALC=-0.98923373070389997,
                   MAILLE='MA16',
                   ),
                _F(INST=250.0,
                   RESULTAT=RESU1,
                   NOM_CHAM='SIEQ_ELNO',
                   NOEUD='NO50',
                   NOM_CMP='PRIN_1',
                   VALE_CALC=-0.98923373070389997,
                   MAILLE='MA16',
                   ),
                _F(INST=250.0,
                   RESULTAT=RESU1,
                   NOM_CHAM='SIEQ_ELNO',
                   NOEUD='NO50',
                   NOM_CMP='PRIN_2',
                   VALE_CALC=-1.8266825260000001E-17,
                   CRITERE='ABSOLU',
                   MAILLE='MA16',
                   ),
                _F(INST=250.0,
                   RESULTAT=RESU1,
                   NOM_CHAM='SIEQ_ELNO',
                   NOEUD='NO50',
                   NOM_CMP='PRIN_3',
                   VALE_CALC=1.6046194399999999E-17,
                   CRITERE='ABSOLU',
                   MAILLE='MA16',
                   ),
                _F(INST=250.0,
                   RESULTAT=RESU1,
                   NOM_CHAM='SIEQ_ELNO',
                   NOEUD='NO50',
                   NOM_CMP='TRESCA',
                   VALE_CALC=0.98923373070389997,
                   MAILLE='MA16',
                   ),
                ),
          )

FIN();
