# MODIF  DATE 23/02/2011   AUTEUR LAVERNE J.LAVERNE 
# TITRE   TEST HM, 2D , MODELISATION THMC=LIQU_SATU
# wtnp128a.para = tps_job 300 mem_job 128Mo ncpus 1 liste_test S
#            CONFIGURATION MANAGEMENT OF EDF VERSION
# ======================================================================
# COPYRIGHT (C) 1991 - 2011  EDF R&D                  WWW.CODE-ASTER.ORG
# THIS PROGRAM IS FREE SOFTWARE; YOU CAN REDISTRIBUTE IT AND/OR MODIFY  
# IT UNDER THE TERMS OF THE GNU GENERAL PUBLIC LICENSE AS PUBLISHED BY  
# THE FREE SOFTWARE FOUNDATION; EITHER VERSION 2 OF THE LICENSE, OR     
# (AT YOUR OPTION) ANY LATER VERSION.                                                    
#                                                                       
# THIS PROGRAM IS DISTRIBUTED IN THE HOPE THAT IT WILL BE USEFUL, BUT   
# WITHOUT ANY WARRANTY; WITHOUT EVEN THE IMPLIED WARRANTY OF            
# MERCHANTABILITY OR FITNESS FOR A PARTICULAR PURPOSE. SEE THE GNU      
# GENERAL PUBLIC LICENSE FOR MORE DETAILS.                              
#                                                                       
# YOU SHOULD HAVE RECEIVED A COPY OF THE GNU GENERAL PUBLIC LICENSE     
# ALONG WITH THIS PROGRAM; IF NOT, WRITE TO EDF R&D CODE_ASTER,         
#    1 AVENUE DU GENERAL DE GAULLE, 92141 CLAMART CEDEX, FRANCE.        
# ======================================================================

DEBUT(CODE=_F( NOM = 'WTNP128A',NIV_PUB_WEB='INTERNET'))

sigc=3.25
gc=0.150
dc=2*gc/sigc

kni=20.
ouvm=1000.

tfin=290.
pas=10
vchar=0.002

pimp=0.21

coef=1./(vchar/2)

VISCOL=DEFI_CONSTANTE(VALE=1.E-9,);

DVISCOL=DEFI_CONSTANTE(VALE=0.,);

PERML=DEFI_CONSTANTE(VALE=0.,);

####################################
#  LISTE DES INSTANTS DE CALCUL
####################################

LISTINST=DEFI_LIST_REEL(DEBUT = 0.,
                        INTERVALLE=(
                                    _F(JUSQU_A = tfin,
                                      NOMBRE = tfin/pas ,),),);

####################################
#  OPERATIONS SUR LE MAILLAGE
####################################

MA0=LIRE_MAILLAGE(FORMAT='MED');

MA=CREA_MAILLAGE(MAILLAGE = MA0, LINE_QUAD = _F(TOUT='OUI'));

MA = DEFI_GROUP(reuse = MA,
       MAILLAGE = MA,
       CREA_GROUP_MA = (
          _F(NOM = 'BETON', GROUP_MA = 'G_2D_33'),
          _F(NOM = 'BORD', GROUP_MA = 'G_1D_39'),
          _F(NOM = 'I1', GROUP_MA = 'G_2D_34'),
          _F(NOM = 'I2', GROUP_MA = 'G_2D_35'),
          _F(NOM = 'I3', GROUP_MA = 'G_2D_36'),
          _F(NOM = 'FISSURE' , UNION = ('I1','I2','I3',),),
          _F(NOM = 'ENTREE',   GROUP_MA = 'G_1D_41'), 
          _F(NOM = 'SORTIE' , GROUP_MA = 'G_1D_42'),
          _F(NOM = 'BORD_F',   GROUP_MA = 'G_1D_40'),         
                        ),
        CREA_GROUP_NO=(
           _F(NOM='BORD_F',GROUP_MA='BORD_F',),
           _F(NOM='AG',GROUP_MA='G_0D_37',),           
           _F(NOM='AD',GROUP_MA='G_0D_38',),
           _F(NOM='FISSURE',GROUP_MA='FISSURE',),        
           _F(NOM='I3',GROUP_MA='I3',),                  
           _F(NOM='I1',GROUP_MA='I1',),          
           _F(NOM='OUVERT',DIFFE=('FISSURE','I3','BORD_F','I1'),),
           _F(NOM='FERME',DIFFE=('FISSURE','OUVERT','BORD_F',),),                                    
       ),);

MA=MODI_MAILLAGE(reuse =MA,
                 MAILLAGE=MA,
                 ORIE_FISSURE=_F(GROUP_MA='FISSURE'),
                 );

####################################
## AFFECTATION DU MODELE
####################################

MO=AFFE_MODELE(MAILLAGE=MA,
                    AFFE=(_F(GROUP_MA=('BETON','BORD'),
                            PHENOMENE='MECANIQUE',
                            MODELISATION='D_PLAN',),
                         _F(GROUP_MA=('FISSURE','ENTREE','SORTIE',),
                            PHENOMENE='MECANIQUE',
                            MODELISATION='PLAN_JHMS',),),);

####################################
## ORIENTATION FISSURE
####################################

ORIEN_FI=AFFE_CARA_ELEM(MODELE=MO,
                        MASSIF=(_F(GROUP_MA=('FISSURE'),
                                  ANGL_REP=(0.,0.,0.,),),
                                ),);

####################################
## DEFINITION DES MATERIAUX
####################################

MAT_1=DEFI_MATERIAU(ELAS=_F(E=27500,
                          NU=0.2,
                          ALPHA=0.0,),
                          );

MAT_2=DEFI_MATERIAU(
                  COMP_THM='LIQU_SATU',
                  THM_INIT=_F(PRE1=0.0,
                                   PORO=1.,),
                  THM_DIFFU=_F(RHO=1000.0,
                                    BIOT_COEF=1.,
                                    PESA_X=0.0,
                                    PESA_Y=00.0,
                                    PESA_Z=00.0,
                                    PERM_IN=PERML,),
                  THM_LIQU=_F(RHO=1000.,
                                   UN_SUR_K=0.,
                                   VISC=VISCOL,
                                   D_VISC_TEMP=DVISCOL,), 
                  THM_RUPT=_F(OUV_FICT=1.E1,
                              UN_SUR_N=1/3.E-4,
                                   ),                         
                  RUPT_FRAG=_F(GC=gc, 
                               SIGM_C=sigc,
                               PENA_ADHERENCE=1.E-3,),
                         );

MAT_3=DEFI_MATERIAU(
                  COMP_THM='LIQU_SATU',
                  THM_INIT=_F(PRE1=0.0,
                                   PORO=1.,),
                  THM_DIFFU=_F(RHO=1.0,
                                    BIOT_COEF=1.,
                                    PESA_X=0.0,
                                    PESA_Y=00.0,
                                    PESA_Z=00.0,
                                    PERM_IN=PERML,),
                  THM_LIQU=_F(RHO=1.,
                                   UN_SUR_K=0.,
                                   VISC=VISCOL,
                                   D_VISC_TEMP=DVISCOL,),
                  JOINT_BANDIS=_F(K=kni,
                                  DMAX=ouvm,
                                  GAMMA=0.,),       
                         );

CM=AFFE_MATERIAU(MAILLAGE=MA,
                 AFFE=(_F(TOUT='OUI',
                         MATER=MAT_1,),
                       _F(GROUP_MA=('I2','I3'),
                         MATER=MAT_2,),
                       _F(GROUP_MA='I1',
                         MATER=MAT_3,),
                         ),);

####################################
## DEFINITION DES CHARGEMENTS
####################################

FORCE=AFFE_CHAR_MECA(
  MODELE=MO,
  FORCE_NODALE= (
    _F(GROUP_NO='AG',FX=-3.73,FY=-1.,),
    _F(GROUP_NO='AD',FX=3.73,FY=-1.,),
    ),
  );

LIAISON=AFFE_CHAR_MECA(
  MODELE=MO,
  DDL_IMPO= (
    _F(GROUP_MA=('SORTIE',),DX=0.,DY=0.),
    _F(GROUP_NO=('BORD_F','I1'),PRE1=0.),
    _F(GROUP_MA=('SORTIE',),PRE1=0.),     
    ),
  );

SYM=AFFE_CHAR_MECA(
  MODELE=MO,
  LIAISON_DDL= (
    _F(GROUP_NO=('AD','AG',),
    DDL=('DX','DX',),
    COEF_MULT=(1.,1.),
    COEF_IMPO=0.),
    ),
  );

PRESS=AFFE_CHAR_MECA(
  MODELE=MO,
  DDL_IMPO=(
    _F(GROUP_NO  =('OUVERT',),PRE1=pimp,),    
  ),);

IMPER=AFFE_CHAR_CINE(
  MODELE=MO,
  MECA_IMPO=(
    _F(GROUP_MA=('FISSURE',),LH1=0.),   
  ),);

####################################
## INITIALISATION DES CHAMPS
####################################

CHAMNO=CREA_CHAMP(MAILLAGE=MA,
                    OPERATION='AFFE', 
                    TYPE_CHAM='NOEU_DEPL_R',
                    AFFE=(
                           _F(GROUP_MA=('I1','I2',),
                             NOM_CMP='PRE1',
                             VALE=pimp,),
                            _F(GROUP_MA=('I3',),
                             NOM_CMP='PRE1',
                             VALE=0.,), ),
                           );

CH_X=CREA_CHAMP( OPERATION='AFFE', TYPE_CHAM='CART_NEUT_R',
                   MODELE=MO,
                   AFFE=(
           _F( GROUP_MA = 'BETON',   NOM_CMP = ('X1',),
                                     VALE = ( 0 ,)),
           _F( GROUP_MA = ('I1',),   NOM_CMP = ('X1',     'X2',  'X3',),
                                     VALE = (0.,0.,0.)),
           _F( GROUP_MA = ('I2'),   NOM_CMP = ('X1',     'X2',  'X3','X4','X5','X6','X7','X8','X9','X10','X11',),
                                     VALE = ( dc,1,2,1.,gc,0.,0.,0.,0.,0.,0.)),                             
           _F( GROUP_MA = ('I3'),   NOM_CMP = ('X1',     'X2',  'X3','X4','X5','X6','X7','X8','X9','X10','X11',),
                                     VALE = ( 0.,0.,0.,0,0,0.,0.,0.,0.,0.,0.)),                                     
                    ),);

CH_VARI=CREA_CHAMP( OPERATION='ASSE', TYPE_CHAM='ELGA_VARI_R',
                   MODELE=MO,
                   ASSE=(
           _F( CHAM_GD = CH_X, 
               GROUP_MA = 'BETON', NOM_CMP = ('X1',  ),NOM_CMP_RESU  = ('V1', )),
           _F( CHAM_GD = CH_X, 
               GROUP_MA = ('I1',),    
               NOM_CMP      = ('X1',  'X2',  'X3',),
               NOM_CMP_RESU = ('V1',  'V2',  'V3',),),
           _F( CHAM_GD = CH_X, 
               GROUP_MA = ('I2'),    
               NOM_CMP      = ('X1',  'X2',  'X3','X4','X5','X6','X7','X8','X9','X10','X11',),
               NOM_CMP_RESU = ('V1',  'V2',  'V3','V4','V5','V6','V7','V8','V9','V10','V11',),),   
           _F( CHAM_GD = CH_X, 
               GROUP_MA = ('I3'),    
               NOM_CMP      = ('X1',  'X2',  'X3','X4','X5','X6','X7','X8','X9','X10','X11',),
               NOM_CMP_RESU = ('V1',  'V2',  'V3','V4','V5','V6','V7','V8','V9','V10','V11',),),               
                   ),);

DEFLIST =DEFI_LIST_INST(DEFI_LIST=_F(LIST_INST =LISTINST ),
                        ECHEC=_F(
                  SUBD_METHODE='UNIFORME',
                  SUBD_PAS  = 5,
                  SUBD_PAS_MINI = 1.E-10,
                  SUBD_NIVEAU=12,
                                 ),);        

####################################
## STAT NON LINE
####################################
 
U_1=STAT_NON_LINE( 
  MODELE     = MO,
  CHAM_MATER = CM,
  CARA_ELEM  = ORIEN_FI, 
  EXCIT      = (
                 _F(CHARGE = LIAISON),
                 _F(CHARGE = SYM),
                 _F(CHARGE = IMPER),
                 _F(CHARGE = PRESS),
                 _F(CHARGE = FORCE, 
                    TYPE_CHARGE='FIXE_PILO',),
               ),
  ETAT_INIT=_F(DEPL=CHAMNO,VARI=CH_VARI),        
  COMP_INCR=(_F(RELATION='ELAS',
               GROUP_MA='BETON',),
             _F(RELATION='KIT_HM',
               RELATION_KIT=('CZM_LIN_REG','LIQU_SATU','HYDR_UTIL',),
               GROUP_MA=('I2',),),  
            _F(RELATION='KIT_HM',
               RELATION_KIT=('CZM_EXP_REG','LIQU_SATU','HYDR_UTIL',),
               GROUP_MA=('I3',),),
            _F(RELATION='KIT_HM',
               RELATION_KIT=('JOINT_BANDIS','LIQU_SATU','HYDR_UTIL',),
               GROUP_MA=('I1',),),               
                ),
  PILOTAGE=(_F(TYPE='DDL_IMPO',
            GROUP_NO='AD',
            NOM_CMP='DX',
            COEF_MULT=coef,
            ),),
  INCREMENT=_F(LIST_INST=DEFLIST,
               INST_FIN=tfin,),
  NEWTON=_F(MATRICE='TANGENTE',
                          REAC_ITER=1,),
  CONVERGENCE=_F(
                 ITER_GLOB_MAXI=50,),  
  SOLVEUR = _F(METHODE = 'MUMPS', PCENT_PIVOT=100,NPREC=-1),
  );

####################################
## TESTS DE VALIDATION
####################################

U_1=CALC_NO(reuse=U_1,  
        TOUT_ORDRE='OUI',
        TOUT='OUI',
        OPTION=( 'FORC_NODA'),
        RESULTAT=U_1,);

# TEST FY EN 'AD' A 100S, 150S ET 250S

TEST_RESU(RESU=_F(RESULTAT=U_1,
                  NUME_ORDRE=10,  
                  NOM_CHAM='FORC_NODA',
                  NOM_CMP='DY',
                  GROUP_NO='AD',
                  VALE=-12.65,
                  CRITERE='RELATIF',
                  PRECISION=10.E-2,
                  REFERENCE='SOURCE_EXTERNE',),);

TEST_RESU(RESU=_F(RESULTAT=U_1,
                  NUME_ORDRE=15,  
                  NOM_CHAM='FORC_NODA',
                  NOM_CMP='DY',
                  GROUP_NO='AD',
                  VALE=-6.41,
                  CRITERE='RELATIF',
                  PRECISION=14.E-2,
                  REFERENCE='SOURCE_EXTERNE',),);

TEST_RESU(RESU=_F(RESULTAT=U_1,
                  NUME_ORDRE=25,  
                  NOM_CHAM='FORC_NODA',
                  NOM_CMP='DY',
                  GROUP_NO='AD',
                  VALE=-0.765,
                  CRITERE='RELATIF',
                  PRECISION=10.E-2,
                  REFERENCE='SOURCE_EXTERNE',),);

# TEST PRE1  NS5768 A 100S, 150S ET 200S

TEST_RESU(RESU=_F(RESULTAT=U_1,
                  NUME_ORDRE=19,  
                  NOM_CHAM='DEPL',
                  NOM_CMP='PRE1',
                  NOEUD='NS5768',
                  VALE=0.155,
                  CRITERE='RELATIF',
                  PRECISION=5.E-2,
                  REFERENCE='SOURCE_EXTERNE',),);

TEST_RESU(RESU=_F(RESULTAT=U_1,
                  NUME_ORDRE=24,  
                  NOM_CHAM='DEPL',
                  NOM_CMP='PRE1',
                  NOEUD='NS5768',
                  VALE=0.19,
                  CRITERE='RELATIF',
                  PRECISION=5.E-2,
                  REFERENCE='SOURCE_EXTERNE',),);

TEST_RESU(RESU=_F(RESULTAT=U_1,
                  NUME_ORDRE=29,  
                  NOM_CHAM='DEPL',
                  NOM_CMP='PRE1',
                  NOEUD='NS5768',
                  VALE=0.20,
                  CRITERE='RELATIF',
                  PRECISION=5.E-2,
                  REFERENCE='SOURCE_EXTERNE',),);

TEST_RESU(RESU=_F(RESULTAT=U_1,
                  NUME_ORDRE=19,  
                  NOM_CHAM='DEPL',
                  NOM_CMP='PRE1',
                  NOEUD='NS5768',
                  VALE=0.1491,
                  REFERENCE='NON_REGRESSION',),);

TEST_RESU(RESU=_F(RESULTAT=U_1,
                  NUME_ORDRE=24,  
                  NOM_CHAM='DEPL',
                  NOM_CMP='PRE1',
                  NOEUD='NS5768',
                  VALE=0.1884,
                  REFERENCE='NON_REGRESSION',),);

TEST_RESU(RESU=_F(RESULTAT=U_1,
                  NUME_ORDRE=29,  
                  NOM_CHAM='DEPL',
                  NOM_CMP='PRE1',
                  NOEUD='NS5768',
                  VALE=0.2016,
                  REFERENCE='NON_REGRESSION',),);
                 
####################################
## DONNEES POUR COURBES DOC V
####################################

AXE_COUP=INTE_MAIL_2D(MAILLAGE=MA,
                    DEFI_SEGMENT=_F(  ORIGINE = ( 0., 51., ),
                                       EXTREMITE = ( 0.,  -150., ),
                                       ),
                    PRECISION=0.0000001,
                                       );

V_X_01=POST_RELEVE_T(ACTION=_F(OPERATION='EXTRACTION',
                               INTITULE='PRE1 selon y',
                               RESULTAT=U_1,
                               NOM_CHAM='DEPL',
                               TOUT_ORDRE='OUI',
                               CHEMIN=AXE_COUP,
                               NOM_CMP=('PRE1',),),);

IMPR_TABLE(TABLE=V_X_01,
           FORMAT='TABLEAU_CROISE',
           NOM_PARA=('INST','COOR_Y','PRE1'),
          );

V_X_02=POST_RELEVE_T(ACTION=_F(OPERATION='EXTRACTION',
                               INTITULE='DX',
                               RESULTAT=U_1,
                               NOM_CHAM='DEPL',
                               TOUT_ORDRE='OUI',
                               GROUP_NO=('AG','AD'),
                               NOM_CMP=('DX',),),);

IMPR_TABLE(TABLE=V_X_02,
           FORMAT='TABLEAU_CROISE',
           NOM_PARA=('COOR_X','INST','DX'),
          );

V_X_03=POST_RELEVE_T(ACTION=_F(OPERATION='EXTRACTION',
                               INTITULE='F',
                               RESULTAT=U_1,
                               NOM_CHAM='FORC_NODA',
                               TOUT_ORDRE='OUI',
                               RESULTANTE=('DX'),
                               GROUP_NO=('AD',),),);

IMPR_TABLE(TABLE=V_X_03,
           FORMAT='TABLEAU',
           NOM_PARA=('INST','DX',),
          );

V_X_04=POST_RELEVE_T(ACTION=_F(OPERATION='EXTRACTION',
                               INTITULE='F',
                               RESULTAT=U_1,
                               NOM_CHAM='FORC_NODA',
                               TOUT_ORDRE='OUI',
                               RESULTANTE=('DY'),
                               GROUP_NO=('AD',),),);

IMPR_TABLE(TABLE=V_X_04,
           FORMAT='TABLEAU',
           NOM_PARA=('INST','DY',),
          );               

FIN();
