# MODIF  DATE 28/09/2004   AUTEUR GRANET S.GRANET 
# TITRE TEST NON REGRESSION HM 2D, MODELISATION THMC=GAZ
#            CONFIGURATION MANAGEMENT OF EDF VERSION
# ======================================================================
# COPYRIGHT (C) 1991 - 2001  EDF R&D                  WWW.CODE-ASTER.ORG
# THIS PROGRAM IS FREE SOFTWARE; YOU CAN REDISTRIBUTE IT AND/OR MODIFY
# IT UNDER THE TERMS OF THE GNU GENERAL PUBLIC LICENSE AS PUBLISHED BY
# THE FREE SOFTWARE FOUNDATION; EITHER VERSION 2 OF THE LICENSE, OR   
# (AT YOUR OPTION) ANY LATER VERSION.                                 
#
# THIS PROGRAM IS DISTRIBUTED IN THE HOPE THAT IT WILL BE USEFUL, BUT 
# WITHOUT ANY WARRANTY; WITHOUT EVEN THE IMPLIED WARRANTY OF          
# MERCHANTABILITY OR FITNESS FOR A PARTICULAR PURPOSE. SEE THE GNU    
# GENERAL PUBLIC LICENSE FOR MORE DETAILS.                            
#
# YOU SHOULD HAVE RECEIVED A COPY OF THE GNU GENERAL PUBLIC LICENSE   
# ALONG WITH THIS PROGRAM; IF NOT, WRITE TO EDF R&D CODE_ASTER,       
#    1 AVENUE DU GENERAL DE GAULLE, 92141 CLAMART CEDEX, FRANCE.      
# ======================================================================
DEBUT(CODE=_F( NOM = 'WTNP101A',NIV_PUB_WEB='INTERNET'))

#
####################################
#   OPERATIONS SUR LE MAILLAGE
#
####################################
MAIL=LIRE_MAILLAGE()

MODELE=AFFE_MODELE(   MAILLAGE=MAIL,
                        AFFE=_F(  TOUT = 'OUI', 
                      PHENOMENE = 'MECANIQUE',
                      MODELISATION = 'D_PLAN_HM')
                     )

####################################
#  LISTE DES INSTANTS DE CALCUL
####################################
LI=DEFI_LIST_REEL(   DEBUT=0.,INTERVALLE=(
                       _F(  JUSQU_A = 1.E0,  NOMBRE = 1),
                       _F(  JUSQU_A = 5.E0,  NOMBRE = 1),
                       _F(  JUSQU_A = 1.E1,  NOMBRE = 1),
                       _F(  JUSQU_A = 5.E1,  NOMBRE = 1),
                       _F(  JUSQU_A = 1.E2,  NOMBRE = 1),
                       _F(  JUSQU_A = 5.E2,  NOMBRE = 1),
                       _F(  JUSQU_A = 1.E3,  NOMBRE = 1),
                       _F(  JUSQU_A = 5.E3,  NOMBRE = 1),
                       _F(  JUSQU_A = 1.E4,  NOMBRE = 1),
                       _F(  JUSQU_A = 5.E4,  NOMBRE = 1),
                       _F(  JUSQU_A = 1.E5,  NOMBRE = 1),
                       _F(  JUSQU_A = 5.E5,  NOMBRE = 1),
                       _F(  JUSQU_A = 1.E6,  NOMBRE = 1),
                       _F(  JUSQU_A = 5.E6,  NOMBRE = 1), 
                       _F(  JUSQU_A = 1.E7,  NOMBRE = 1),
                       _F(  JUSQU_A = 1.E10, NOMBRE = 1))
                     )

ARCHI=DEFI_LIST_REEL(    DEBUT=0.,INTERVALLE=(
                       _F(  JUSQU_A = 1.E0,  NOMBRE = 1),
                       _F(  JUSQU_A = 5.E0,  NOMBRE = 1),
                       _F(  JUSQU_A = 1.E1,  NOMBRE = 1),
                       _F(  JUSQU_A = 5.E1,  NOMBRE = 1),
                       _F(  JUSQU_A = 1.E2,  NOMBRE = 1),
                       _F(  JUSQU_A = 5.E2,  NOMBRE = 1),
                       _F(  JUSQU_A = 1.E3,  NOMBRE = 1),
                       _F(  JUSQU_A = 5.E3,  NOMBRE = 1),
                       _F(  JUSQU_A = 1.E4,  NOMBRE = 1),
                       _F(  JUSQU_A = 5.E4,  NOMBRE = 1),
                       _F(  JUSQU_A = 1.E5,  NOMBRE = 1),
                       _F(  JUSQU_A = 5.E5,  NOMBRE = 1),
                       _F(  JUSQU_A = 1.E6,  NOMBRE = 1),
                       _F(  JUSQU_A = 5.E6,  NOMBRE = 1), 
                       _F(  JUSQU_A = 1.E7,  NOMBRE = 1),
                       _F(  JUSQU_A = 1.E10, NOMBRE = 1))
                 )

############################################
#
# DEFINITION DES FONCTIONS DE COMPORTEMENT :
# VISCOSITE LIQUIDE ET GAZ : UNITE : PA.S
#
####
VISCOLIQ=DEFI_CONSTANTE(    VALE=1.E-3)

VISCOGAZ=DEFI_CONSTANTE(    VALE=1.E-5)

DVISCOL=DEFI_CONSTANTE(    VALE=0.)

DVISCOG=DEFI_CONSTANTE(    VALE=0.)

#####
#KINT=DEFI_CONSTANTE(    VALE=1.E-18)
KINT=DEFI_CONSTANTE(    VALE=1.E-15)

UN=DEFI_CONSTANTE(    VALE=1.)

ZERO=DEFI_CONSTANTE(    VALE=0.)

#
PERMGAZ=DEFI_CONSTANTE(    VALE=1.)

DPERGSA=DEFI_CONSTANTE(    VALE=0.)

DPERGPG=DEFI_CONSTANTE(    VALE=0.)


#


MATERIAU=DEFI_MATERIAU(     THM_LIQU=_F(  
   RHO = 1000.,
   UN_SUR_K = 3.77E-9,
   ALPHA = 1.E-4,
   CP = 2.85E6,
   VISC = VISCOLIQ,
   D_VISC_TEMP = DVISCOL,),
                              THM_GAZ=_F( 
   MASS_MOL = 28.96E-3,
   CP = 1000.,
   VISC = VISCOGAZ,
   D_VISC_TEMP = DVISCOG,),                  
         
                              THM_VAPE_GAZ=_F( 
   MASS_MOL = 18.E-3,
   CP = 1870.,
   VISC = VISCOGAZ,
   D_VISC_TEMP = DVISCOG),
                              THM_DIFFU=_F( 
   R_GAZ = 8.315,
   RHO = 1.6E3,
   CP = 2.85E6,
   BIOT_COEF = 1.,
   SATU_PRES = UN,
   D_SATU_PRES = ZERO,
   PESA_X = 0.,
   PESA_Y = -10.,
   PESA_Z = 0.,
   PERMIN_X = KINT,
   PERMIN_Y = KINT,
   PERMIN_Z = KINT,
   PERM_LIQU = UN,
   D_PERM_LIQU_SATU = ZERO,
   PERM_GAZ = PERMGAZ,
   D_PERM_SATU_GAZ = DPERGSA,
   D_PERM_PRES_GAZ = DPERGPG,),
                              THM_INIT=_F( 
   TEMP = 293.,
   PRE1 = 1.E5,
   PRE2 = 1.E5,
   PORO = 0.4,
   PRES_VAPE = 2269.8,
  ),
   COMP_THM = 'GAZ',
                                     ELAS=_F( 
   E = 225.E6,
   NU = 0.,
   RHO = 2000.,
   ALPHA = 8.E-6)
   )

CHMAT0=AFFE_MATERIAU(   MAILLAGE=MAIL,
                          AFFE=_F( TOUT = 'OUI',
                        MATER = MATERIAU))

CHARHO=AFFE_CHAR_MECA(   MODELE=MODELE,
                          DDL_IMPO=_F(  TOUT = 'OUI',
                                   DX = 0.,
                                   DY = 0.)
                                  )

RESU0=STAT_NON_LINE( 
                            MODELE=MODELE,
                           SOLVEUR=_F( 
                METHODE = 'LDLT'),
                        CHAM_MATER=CHMAT0,
                             EXCIT=_F( 
                CHARGE = CHARHO),
                         COMP_INCR=_F( 
                RELATION = 'KIT_HM',
                RELATION_KIT = (
                  'ELAS',          'GAZ',
                  'HYDR_UTIL',     )),
                         INCREMENT=_F( 
                LIST_INST = LI),
                            NEWTON=_F( 
                MATRICE = 'TANGENTE',
                REAC_ITER = 121),
                       CONVERGENCE=_F( 
                RESI_GLOB_RELA = 1.E-8,
                ITER_GLOB_MAXI = 120,
                ITER_INTE_MAXI = 5),
                        PARM_THETA=1.,
                         ARCHIVAGE=_F( 
                LIST_INST = ARCHI)
              )
TEST_RESU( 
           RESU=_F(  RESULTAT = RESU0,         NUME_ORDRE = 1,
             NOM_CHAM = 'DEPL', 
             NOM_CMP = 'PRE1',
             NOEUD = 'N1',   
             VALE = 1.7825E-3,   
             CRITERE = 'RELATIF',
             PRECISION = 1.E-2,
             REFERENCE='NON_REGRESSION',)
           )

TEST_RESU( 
           RESU=_F(  RESULTAT = RESU0,         NUME_ORDRE = 1,
             NOM_CHAM = 'DEPL', 
             NOM_CMP = 'PRE1',
             NOEUD = 'N3',   
             VALE = -1.7825E-3,   
             CRITERE = 'RELATIF',
             PRECISION = 1.E-2,
             REFERENCE='NON_REGRESSION',)
           )

TEST_RESU( 
           RESU=_F(  RESULTAT = RESU0,         NUME_ORDRE = 2,
             NOM_CHAM = 'DEPL', 
             NOM_CMP = 'PRE1',
             NOEUD = 'N1',   
             VALE =  8.904E-03,   
             CRITERE = 'RELATIF',
             PRECISION = 1.E-2,
             REFERENCE='NON_REGRESSION',)
           )

TEST_RESU( 
           RESU=_F(  RESULTAT = RESU0,         NUME_ORDRE = 2,
             NOM_CHAM = 'DEPL', 
             NOM_CMP = 'PRE1',
             NOEUD = 'N3',   
             VALE = -8.904E-03,    
             CRITERE = 'RELATIF',
             PRECISION = 1.E-2,
             REFERENCE='NON_REGRESSION',)
           )

TEST_RESU( 
           RESU=_F(  RESULTAT = RESU0,         NUME_ORDRE = 3,
             NOM_CHAM = 'DEPL', 
             NOM_CMP = 'PRE1',
             NOEUD = 'N1',   
             VALE = 1.7830E-02,   
             CRITERE = 'RELATIF',
             PRECISION = 1.E-2,
             REFERENCE='NON_REGRESSION',)
           )

TEST_RESU( 
           RESU=_F(  RESULTAT = RESU0,         NUME_ORDRE = 3,
             NOM_CHAM = 'DEPL', 
             NOM_CMP = 'PRE1',
             NOEUD = 'N3',   
             VALE = -1.7830E-02,   
             CRITERE = 'RELATIF',
             PRECISION = 1.E-2,
             REFERENCE='NON_REGRESSION',)
           )

TEST_RESU( 
           RESU=_F(  RESULTAT = RESU0,         NUME_ORDRE = 4,
             NOM_CHAM = 'DEPL', 
             NOM_CMP = 'PRE1',
             NOEUD = 'N1',   
             VALE = 8.806E-2,   
             CRITERE = 'RELATIF',
             PRECISION = 1.E-02,
             REFERENCE='NON_REGRESSION',)
           )

TEST_RESU( 
           RESU=_F(  RESULTAT = RESU0,         NUME_ORDRE = 4,
             NOM_CHAM = 'DEPL', 
             NOM_CMP = 'PRE1',
             NOEUD = 'N3',   
             VALE = -8.806E-02,   
             CRITERE = 'RELATIF',
             PRECISION = 1.E-02,
             REFERENCE='NON_REGRESSION',)
           )

TEST_RESU( 
           RESU=_F(  RESULTAT = RESU0,         NUME_ORDRE = 8,
             NOM_CHAM = 'DEPL', 
             NOM_CMP = 'PRE1',
             NOEUD = 'N1',   
             VALE = 3.908,
             CRITERE = 'RELATIF',
             PRECISION = 1.E-02,
             REFERENCE='NON_REGRESSION',)
           )

TEST_RESU( 
           RESU=_F(  RESULTAT = RESU0,         NUME_ORDRE = 8,
             NOM_CHAM = 'DEPL', 
             NOM_CMP = 'PRE1',
             NOEUD = 'N3',   
             VALE = -3.908,
             CRITERE = 'RELATIF',
             PRECISION = 1.E-02,
             REFERENCE='NON_REGRESSION',)
           )

TEST_RESU( 
           RESU=_F(  RESULTAT = RESU0,         NUME_ORDRE = 16,
             NOM_CHAM = 'DEPL', 
             NOM_CMP = 'PRE1',
             NOEUD = 'N1',   
             VALE = 5.9435,   
             CRITERE = 'RELATIF',
             PRECISION = 1.E-02,
             REFERENCE='NON_REGRESSION',)
           )

TEST_RESU( 
           RESU=_F(  RESULTAT = RESU0,         NUME_ORDRE = 16,
             NOM_CHAM = 'DEPL', 
             NOM_CMP = 'PRE1',
             NOEUD = 'N3',   
             VALE = -5.9435,   
             CRITERE = 'RELATIF',
             PRECISION = 1.E-02,
             REFERENCE='NON_REGRESSION',)
           )

FIN()
