# MODIF  DATE 05/03/2012   AUTEUR PELLET J.PELLET 
# TITRE RESATURATION D UNE ALVEOLE TEST THHD, 2D , MODELISATION THMC=LIQU_GAZ
# wtnp113a.para = tps_job 1850 mem_job 128Mo ncpus 1 liste_test L
#            CONFIGURATION MANAGEMENT OF EDF VERSION
# ======================================================================
# COPYRIGHT (C) 1991 - 2012  EDF R&D                  WWW.CODE-ASTER.ORG
# THIS PROGRAM IS FREE SOFTWARE; YOU CAN REDISTRIBUTE IT AND/OR MODIFY
# IT UNDER THE TERMS OF THE GNU GENERAL PUBLIC LICENSE AS PUBLISHED BY
# THE FREE SOFTWARE FOUNDATION; EITHER VERSION 2 OF THE LICENSE, OR
# (AT YOUR OPTION) ANY LATER VERSION.
#
# THIS PROGRAM IS DISTRIBUTED IN THE HOPE THAT IT WILL BE USEFUL, BUT
# WITHOUT ANY WARRANTY; WITHOUT EVEN THE IMPLIED WARRANTY OF
# MERCHANTABILITY OR FITNESS FOR A PARTICULAR PURPOSE. SEE THE GNU
# GENERAL PUBLIC LICENSE FOR MORE DETAILS.
#
# YOU SHOULD HAVE RECEIVED A COPY OF THE GNU GENERAL PUBLIC LICENSE
# ALONG WITH THIS PROGRAM; IF NOT, WRITE TO EDF R&D CODE_ASTER,
#    1 AVENUE DU GENERAL DE GAULLE, 92141 CLAMART CEDEX, FRANCE.
# ======================================================================
#                    TEST32 ALLIANCES
# wtnp113a.para = tps_job 1850 mem_job 128Mo ncpus 1 liste_test L
#            CONFIGURATION MANAGEMENT OF EDF VERSION
# ======================================================================
DEBUT(CODE=_F( NOM = 'WTNP113A',NIV_PUB_WEB='INTERNET'))

#
####################################
#   OPERATIONS SUR LE MAILLAGE
#
####################################
MAILIN=LIRE_MAILLAGE(FORMAT='MED',);

MAIL = CREA_MAILLAGE(
                         MAILLAGE  = MAILIN,
                         LINE_QUAD = _F(TOUT = 'OUI'),
                       )

MAIL=DEFI_GROUP( reuse=MAIL,  MAILLAGE=MAIL,
                CREA_GROUP_MA=(_F(NOM='ROCHE',
                                 TOUT='OUI',),),
                CREA_GROUP_NO=(
                     _F( GROUP_MA = 'GAUCHB'),
                     _F( GROUP_MA = 'GAUCHH'),
                     _F( GROUP_MA = 'ALVEOL'),
                     _F( GROUP_MA = 'ALV_EXT'),
                     _F(DIFFE=('ALV_EXT','E'),
                        NOM='A_EXT1',),
                     _F(DIFFE=('A_EXT1','F'),
                        NOM='ALV_G',),
                     _F( GROUP_MA = 'DROIT'),
                     _F(GROUP_MA='BAS',),
                     _F(GROUP_MA='HAUT',),
                     _F( GROUP_MA = 'INT_ALV'),
                     _F(NOM='INT_ALVS',
                                 CRIT_NOEUD='SOMMET',
                                 GROUP_MA='INT_ALV'),
                               _F(NOM='HAUTS',
                                 CRIT_NOEUD='SOMMET',
                                 GROUP_MA='HAUT'),
                               _F(NOM='BASS',
                                 CRIT_NOEUD='SOMMET',
                                 GROUP_MA='BAS'),
                               _F(NOM='ROCHES',
                                 CRIT_NOEUD='SOMMET',
                                 GROUP_MA='ROCHE'),
                     _F(DIFFE=('BASS','A'),
                        NOM='BAS1',),
                     _F(DIFFE=('BAS1','B'),
                        NOM='BAS2',),
                     _F(DIFFE=('HAUTS','D'),
                        NOM='HAUT1',),
                     _F(DIFFE=('HAUT1','C'),
                        NOM='HAUT2',),
                    ),
                     )

MODELE=AFFE_MODELE(   MAILLAGE=MAIL,
                        AFFE=_F(  TOUT = 'OUI',
                      PHENOMENE = 'MECANIQUE',
                      MODELISATION = 'D_PLAN_THHD')
                     )

####################################
#  LISTE DES INSTANTS DE CALCUL
####################################
LI=DEFI_LIST_REEL(   DEBUT=0.,INTERVALLE=(
# 1 an :
#                      _F(  JUSQU_A = 31536000.,  NOMBRE = XX1),
# 15 ans :
                        _F(  JUSQU_A = 473040000.,  NOMBRE = 2),
# 50 ans :
                      _F(  JUSQU_A = 15768.E5,  NOMBRE = 3),
# 100 ans :
                       _F(  JUSQU_A =31536.E5,  NOMBRE = 2),
# 200 ans :
                       _F(  JUSQU_A =63072.E5,  NOMBRE = 2),
# 500 ans :
                       _F(  JUSQU_A =15768.E6,  NOMBRE = 5),
# 1000 ans :
                       _F(  JUSQU_A =31536.E6,  NOMBRE = 10),
# 10000 ans :
                       _F(  JUSQU_A =31536.E7,  NOMBRE = 10),
                     ),);


############################################
#
# DEFINITION DES FONCTIONS DE COMPORTEMENT :
# VISCOSITE LIQUIDE ET GAZ : UNITE : PA.S
#
####

VISCOL=DEFI_CONSTANTE(VALE=1.,);

VISCOG=DEFI_CONSTANTE(VALE=1.8E-05,);

DVISCOL=DEFI_CONSTANTE(VALE=0.0,);

DVISCOG=DEFI_CONSTANTE(VALE=0.0,);

####
UN=DEFI_CONSTANTE(    VALE=1.,);

ZERO=DEFI_CONSTANTE(    VALE=0.,);

LI2=DEFI_LIST_REEL(DEBUT=0.0,
                   INTERVALLE=_F(JUSQU_A=1.E10,
                                 PAS=1.E6,),);

LI1=DEFI_LIST_REEL(DEBUT=1.E-5,
                   INTERVALLE=_F(JUSQU_A=1.0,
                                 PAS=0.099999,),);
#
# PRESSION CAPILLAIRE S(PC)
#
SL = FORMULE(NOM_PARA='PCAP',VALE='0.999*(0.85/(1+(6.5E-8*PCAP)**1.49)**0.33+0.15)');
SATU=CALC_FONC_INTERP(FONCTION=SL,
                      LIST_PARA=LI2,
                      NOM_PARA='PCAP',
                      PROL_DROITE='CONSTANT',
                      PROL_GAUCHE='CONSTANT',
                      INFO=2,);
DSL = FORMULE(NOM_PARA='PCAP',VALE='- 0.999*(2.71E-8*(6.5E-8*PCAP)**0.49/((1+(6.5E-8*PCAP)**1.49)**1.33))');

DSATU=CALC_FONC_INTERP(FONCTION=DSL,
                       LIST_PARA=LI2,
                       NOM_PARA='PCAP',
                       PROL_DROITE='CONSTANT',
                       PROL_GAUCHE='CONSTANT',
                       INFO=2,);
#
# PERMEABILITE INTRINSEQUE, RELATIVE DU LIQUIDE, RELATIVE DU GAZ
# UNITE INTRINSEQUE : METRES CARRES , UNITE RELATIVE : SANS
#
KINT=DEFI_CONSTANTE(    VALE=1.E-18)

PL = FORMULE(NOM_PARA='SAT',VALE='0.999*SAT**3');

PERML=CALC_FONC_INTERP(FONCTION=PL,
                       LIST_PARA=LI1,
                       NOM_PARA='SAT',
                       PROL_DROITE='CONSTANT',
                       PROL_GAUCHE='CONSTANT',
                       INFO=2,);

DPL= FORMULE(NOM_PARA='SAT',VALE='0.999*3*SAT**2');

DPERML=CALC_FONC_INTERP(FONCTION=DPL,
                       LIST_PARA=LI1,
                       NOM_PARA='SAT',
                       PROL_DROITE='CONSTANT',
                       PROL_GAUCHE='CONSTANT',
                       INFO=2,);


BG=DEFI_MATERIAU(
   THM_LIQU=_F(
         RHO = 1000.,
         UN_SUR_K = 1.E-10,
         CP=1000.0,
         ALPHA = 1.E-4,
         VISC = VISCOL,
         D_VISC_TEMP = ZERO,),
   COMP_THM = 'LIQU_GAZ',
   THM_GAZ=_F(
         MASS_MOL = 28.96E-3,
         CP=1000.0,
         VISC = UN,
         D_VISC_TEMP = ZERO,),
    THM_DIFFU=_F(
        R_GAZ = 8.315,
        RHO = 1.6E3,
        CP=1000.0,
        BIOT_COEF = 1.,
        SATU_PRES=SATU,
        D_SATU_PRES=DSATU,
        PESA_X = 0.,
        PESA_Y = 0.,
        PESA_Z = 0.,
        PERM_IN = KINT,
        PERM_LIQU=PERML,
        D_PERM_LIQU_SATU=DPERML,
        PERM_GAZ=ZERO,
        D_PERM_SATU_GAZ=ZERO,
        D_PERM_PRES_GAZ=ZERO,
        LAMB_T=ZERO,
        EMMAG = 4.E-10 ,
        ),
        THM_INIT=_F(
         TEMP = 293.,
         PRE1 = 0.,
         PRE2 = 1.E5,
         PORO = 0.14,),)


CHMAT0=AFFE_MATERIAU(MAILLAGE=MAIL,
                     AFFE=_F(TOUT = 'OUI',
                     MATER = BG),)

#################################
# PHASE D EXPLOITATION
#################################

CHAMNO=CREA_CHAMP(MAILLAGE=MAIL,
                    OPERATION='AFFE',
                    TYPE_CHAM='NOEU_DEPL_R',
                    AFFE=(
                           _F(TOUT='OUI',
                             NOM_CMP='PRE1',
                             VALE=1.E5,),
                             ),);
CALHAU=AFFE_CHAR_MECA(MODELE=MODELE,
                       DDL_IMPO=_F(GROUP_NO='HAUT2',
                                   PRE1=1E5,),);
CALBAS=AFFE_CHAR_MECA(MODELE=MODELE,
                       DDL_IMPO=_F(GROUP_NO='BAS2',
                                   PRE1=1E5,),);
CAL_IA=AFFE_CHAR_MECA(MODELE=MODELE,
                       DDL_IMPO=_F(GROUP_NO='INT_ALVS',
                                   PRE1=9.4E+7,),);

CALGAZ=AFFE_CHAR_MECA(MODELE=MODELE,
                       DDL_IMPO=_F(GROUP_NO='ROCHES',
                                   PRE2=0.,),);
CALTEMP=AFFE_CHAR_MECA(MODELE=MODELE,
                       DDL_IMPO=_F(GROUP_NO='ROCHES',
                                   TEMP=0.,),);


INST_ETAT_INIT=473040000.;

RESU0=STAT_NON_LINE(
                MODELE=MODELE,
                CHAM_MATER=CHMAT0,
                EXCIT=(
                        _F(CHARGE=CALHAU,),
                        _F(CHARGE=CALBAS,),
                        _F(CHARGE=CALTEMP,),
                        _F(CHARGE=CAL_IA,),
                        _F(CHARGE=CALGAZ,),),
                 ETAT_INIT=_F(DEPL=CHAMNO,
                              ),
                COMP_INCR=_F(
                RELATION = 'KIT_THH',
                RELATION_KIT = ('LIQU_GAZ','HYDR_UTIL')),
                RECH_LINEAIRE =_F(RESI_LINE_RELA = 1.E-3  ,
                                  METHODE='MIXTE',
                                  ITER_LINE_MAXI = 1,),
                INCREMENT=_F(  LIST_INST = LI,
                             INST_FIN = INST_ETAT_INIT,),
                NEWTON=_F(MATRICE='TANGENTE',
                          REAC_ITER=1,),
                CONVERGENCE=_F(ITER_GLOB_MAXI=50,),
              );
######################
# DEUXIEME PHASE
######################


# Recuperation des valeurs pour l initialisation


SIG1=CREA_CHAMP(OPERATION='EXTR',
                    TYPE_CHAM='ELGA_SIEF_R',
                    NOM_CHAM='SIEF_ELGA',
                    RESULTAT=RESU0,
                    INST=INST_ETAT_INIT,);
VARI1=CREA_CHAMP(OPERATION='EXTR',
                    TYPE_CHAM='ELGA_VARI_R',
                    NOM_CHAM='VARI_ELGA',
                    RESULTAT=RESU0,
                    INST=INST_ETAT_INIT,);
DEP0=CREA_CHAMP(OPERATION='EXTR',
                    TYPE_CHAM='NOEU_DEPL_R',
                    NOM_CHAM='DEPL',
                    RESULTAT=RESU0,
                    INST=INST_ETAT_INIT,);
INID=CREA_CHAMP(MAILLAGE=MAIL,
                    OPERATION='AFFE',
                    TYPE_CHAM='NOEU_DEPL_R',
                    AFFE=(
                           _F(GROUP_NO='INT_ALV',
                             NOM_CMP='PRE1',
                             VALE=3015.E4,),
                             ),);
DEP1=CREA_CHAMP(MAILLAGE=MAIL,
                 OPERATION='ASSE',
                 TYPE_CHAM='NOEU_DEPL_R',
                 ASSE=( _F(CHAM_GD=DEP0,TOUT='OUI',),
                        _F(CHAM_GD=INID,GROUP_NO='INT_ALV',),
                             ),);

INST_SANS_RL = 31536.E6;
RESU0=STAT_NON_LINE(reuse=RESU0,
                MODELE=MODELE,
                CHAM_MATER=CHMAT0,
                EXCIT=(
                        _F(CHARGE=CALHAU,),
                        _F(CHARGE=CALBAS,),
                        _F(CHARGE=CALTEMP,),
                        _F(CHARGE=CALGAZ,),),
                COMP_INCR=_F(
                 RELATION = 'KIT_THH',
                 RELATION_KIT = ('LIQU_GAZ','HYDR_UTIL')),
                INCREMENT=_F( LIST_INST = LI,INST_FIN=INST_SANS_RL,
                              ),
                RECH_LINEAIRE =_F(RESI_LINE_RELA = 1.E-3  ,
                                  METHODE='MIXTE',
                                  ITER_LINE_MAXI = 1,),
                ETAT_INIT = _F (SIGM=SIG1,
                                VARI=VARI1,
                                DEPL=DEP1,
                                INST_ETAT_INIT=INST_ETAT_INIT, ),
                NEWTON=_F(MATRICE='TANGENTE',
                           REAC_ITER=50,),
                CONVERGENCE=_F(ITER_GLOB_MAXI=70,),
              );

SIG2=CREA_CHAMP(OPERATION='EXTR',
                    TYPE_CHAM='ELGA_SIEF_R',
                    NOM_CHAM='SIEF_ELGA',
                    RESULTAT=RESU0,
                    INST=INST_SANS_RL,);
VARI2=CREA_CHAMP(OPERATION='EXTR',
                    TYPE_CHAM='ELGA_VARI_R',
                    NOM_CHAM='VARI_ELGA',
                    RESULTAT=RESU0,
                    INST=INST_SANS_RL,);
DEP2=CREA_CHAMP(OPERATION='EXTR',
                    TYPE_CHAM='NOEU_DEPL_R',
                    NOM_CHAM='DEPL',
                    RESULTAT=RESU0,
                    INST=INST_SANS_RL,);

RESU0=STAT_NON_LINE(reuse=RESU0,
                MODELE=MODELE,
                CHAM_MATER=CHMAT0,
                EXCIT=(
                        _F(CHARGE=CALHAU,),
                        _F(CHARGE=CALBAS,),
                        _F(CHARGE=CALTEMP,),
                        _F(CHARGE=CALGAZ,),),
                COMP_INCR=_F(
                 RELATION = 'KIT_THH',
                 RELATION_KIT = ('LIQU_GAZ','HYDR_UTIL')),
                INCREMENT=_F( LIST_INST = LI,
                              ),
                ETAT_INIT = _F (SIGM=SIG2,
                                VARI=VARI2,
                                DEPL=DEP2,
                                INST_ETAT_INIT=INST_SANS_RL, ),
                NEWTON=_F(MATRICE='TANGENTE',
                           REAC_ITER=1,),
                CONVERGENCE=_F(ITER_GLOB_MAXI=70,),
              );


RESU0=CALC_ELEM(reuse =RESU0,


             TOUT_ORDRE='OUI',
             OPTION=('SIEF_ELNO','VARI_ELNO'),
             RESULTAT=RESU0,);

RESU0=CALC_CHAMP(reuse=RESU0,
        VARI_INTERNE='VARI_NOEU',
        RESULTAT=RESU0,);
MILIEU=INTE_MAIL_2D(MAILLAGE=MAIL,
                    DEFI_SEGMENT=_F(  ORIGINE = ( 0.,  -450., ),
                                       EXTREMITE = ( 10.,  -450., ))
                                       )
TRB=POST_RELEVE_T(ACTION=_F(INTITULE='DEPL',
                            CHEMIN=MILIEU,
                            RESULTAT=RESU0,
                            NOM_CHAM='DEPL',
                  NUME_ORDRE=(1,2,5,7,9,14,24,34),
                            NOM_CMP=('PRE1'),
                            OPERATION='EXTRACTION',),);
TRV=POST_RELEVE_T(ACTION=_F(INTITULE='DEPL',
                            CHEMIN=MILIEU,
                            RESULTAT=RESU0,
                            NOM_CHAM='VARI_ELNO',
                  NUME_ORDRE=(1,2,5,7,9,14,24,34),
                            NOM_CMP=('V3'),
                            OPERATION='EXTRACTION',),);

IMPR_TABLE(TABLE=TRB,
           FORMAT='AGRAF',
           PAGINATION='INST',
           NOM_PARA=('INST','COOR_X','COOR_Y','PRE1'),);
IMPR_TABLE(TABLE=TRV,
           FORMAT='AGRAF',
           PAGINATION='INST',
           NOM_PARA=('INST','COOR_X','COOR_Y','V3'),);

VERT=INTE_MAIL_2D(MAILLAGE=MAIL,
                  PRECISION=1.E-4,
                  DEFI_SEGMENT=_F(ORIGINE = ( 7.,  -400., ),
                                  EXTREMITE = ( 7.,  -500., )));
TRVB=POST_RELEVE_T(ACTION=_F(INTITULE='DEPL',
                            CHEMIN=VERT,
                            RESULTAT=RESU0,
                            NOM_CHAM='DEPL',
                      NUME_ORDRE=(1,2,5,7,9,14,24,34),
                            NOM_CMP=('PRE1'),
                            OPERATION='EXTRACTION',),);

TRVV=POST_RELEVE_T(ACTION=_F(INTITULE='DEPL',
                            CHEMIN=VERT,
                            RESULTAT=RESU0,
                            NOM_CHAM='VARI_ELNO',
                      NUME_ORDRE=(1,2,5,7,9,14,24,34),
                            NOM_CMP=('V3'),
                            OPERATION='EXTRACTION',),);
IMPR_TABLE(TABLE=TRVB,
           FORMAT='AGRAF',
           PAGINATION='INST',
           NOM_PARA=('INST','COOR_X','COOR_Y','PRE1'),);
IMPR_TABLE(TABLE=TRVV,
           FORMAT='AGRAF',
           PAGINATION='INST',
           NOM_PARA=('INST','COOR_X','COOR_Y','V3'),);

#
#  NO1496 (5.014; -450.) et NO1059 (+7 ; -450)
#
TEST_RESU(RESU=_F(RESULTAT=RESU0,
                  NUME_ORDRE=3,  #50 ans
                  NOM_CHAM='DEPL',
                  NOM_CMP='PRE1',
                  NOEUD='NO1496',
                  VALE=2.9E7,
                  CRITERE='RELATIF',
                  PRECISION=2.E-1,
                  REFERENCE='SOURCE_EXTERNE',),);

TEST_RESU(RESU=_F(RESULTAT=RESU0,
                  NUME_ORDRE=34,  #10000 ans
                  NOM_CHAM='DEPL',
                  NOM_CMP='PRE1',
                  NOEUD='NO1496',
                  VALE=4.35E6,
                  CRITERE='RELATIF',
                  PRECISION=2.E-1,
                  REFERENCE='SOURCE_EXTERNE',),);

TEST_RESU(RESU=_F(RESULTAT=RESU0,
                  NUME_ORDRE=3,  #50 ans
                  NOM_CHAM='DEPL',
                  NOM_CMP='PRE1',
                  NOEUD='NO823',
                  VALE=3.6E6,
                  CRITERE='RELATIF',
                  PRECISION=2.E-1,
                  REFERENCE='SOURCE_EXTERNE',),);

TEST_RESU(RESU=_F(RESULTAT=RESU0,
                  NUME_ORDRE=34,  #10000 ans
                  NOM_CHAM='DEPL',
                  NOM_CMP='PRE1',
                  NOEUD='NO823',
                  VALE=4.34E6,
                  CRITERE='RELATIF',
                  PRECISION=2.E-1,
                  REFERENCE='SOURCE_EXTERNE',),);

TEST_RESU(RESU=_F(RESULTAT=RESU0,
                  NUME_ORDRE=3,  #50 ans
                  NOM_CHAM='VARI_NOEU',
                  NOM_CMP='V3',
                  NOEUD='NO1496',
                  VALE=0.7,
                  CRITERE='RELATIF',
                  PRECISION=2.E-1,
                  REFERENCE='SOURCE_EXTERNE',),);


TEST_RESU(RESU=_F(RESULTAT=RESU0,
                  NUME_ORDRE=34,  #10000 ans
                  NOM_CHAM='DEPL',
                  NOM_CMP='PRE1',
                  NOEUD='NO823',
                  VALE=4.3113E+06,
                  CRITERE='RELATIF',
                  PRECISION=1.E-3,
                  REFERENCE='NON_REGRESSION',),);
FIN();
