# ======================================================================
# TITRE MODELISATION D_PLAN_THHD EN QUAD4
# ======================================================================
# COPYRIGHT (C) 1991 - 2013  EDF R&D                  WWW.CODE-ASTER.ORG
# THIS PROGRAM IS FREE SOFTWARE; YOU CAN REDISTRIBUTE IT AND/OR MODIFY
# IT UNDER THE TERMS OF THE GNU GENERAL PUBLIC LICENSE AS PUBLISHED BY
# THE FREE SOFTWARE FOUNDATION; EITHER VERSION 2 OF THE LICENSE, OR
# (AT YOUR OPTION) ANY LATER VERSION.
#
# THIS PROGRAM IS DISTRIBUTED IN THE HOPE THAT IT WILL BE USEFUL, BUT
# WITHOUT ANY WARRANTY; WITHOUT EVEN THE IMPLIED WARRANTY OF
# MERCHANTABILITY OR FITNESS FOR A PARTICULAR PURPOSE. SEE THE GNU
# GENERAL PUBLIC LICENSE FOR MORE DETAILS.
#
# YOU SHOULD HAVE RECEIVED A COPY OF THE GNU GENERAL PUBLIC LICENSE
# ALONG WITH THIS PROGRAM; IF NOT, WRITE TO EDF R&D CODE_ASTER,
#    1 AVENUE DU GENERAL DE GAULLE, 92141 CLAMART CEDEX, FRANCE.
# ======================================================================
# ======================================================================

DEBUT(CODE=_F(NOM='WTNP102B', NIV_PUB_WEB='INTERNET'), DEBUG=_F(SDVERI='OUI'))

####################################
##### PERMEABILITE RELATIVE AU LIQ.ET SA DERIVEE (BO)
##### PERMEABILITE RELATIVE AU GAZ ET SA DERIRVEE (BO )
###### DERIVEE DE PERM21 DU GAZ PAR RAPPORT A SAT (BO )
#############################

INST1=DEFI_LIST_REEL(DEBUT=0.0,
                     INTERVALLE=_F(
                      JUSQU_A=10000.,NOMBRE=10,),);


MAILIN=LIRE_MAILLAGE(FORMAT='MED',);

MAIL = CREA_MAILLAGE(
                         MAILLAGE  = MAILIN,
                         LINE_QUAD = _F(TOUT = 'OUI'),
                       )


MAIL=DEFI_GROUP(reuse =MAIL,
                MAILLAGE=MAIL,
                CREA_GROUP_NO=(_F(GROUP_MA='BAS',),
                               _F(GROUP_MA='HAUT',),
                               _F(GROUP_MA='GAUCHE',),
                               _F(GROUP_MA='DROIT',),
                               _F(GROUP_MA='BO',),
                               ),);

MODELE=AFFE_MODELE(MAILLAGE=MAIL,
                   AFFE=_F(TOUT='OUI',
                           PHENOMENE='MECANIQUE',
                           MODELISATION='D_PLAN_THHD',),);

MODI_MAILLAGE(reuse =MAIL,
                   MAILLAGE=MAIL,
                   ORIE_PEAU_2D=(_F(GROUP_MA='BAS',),
                               _F(GROUP_MA='HAUT',),
                               _F(GROUP_MA='GAUCHE',),
                               _F(GROUP_MA='DROIT',),),
              );

UN=DEFI_CONSTANTE(VALE=1.0,);
UNDEMI=DEFI_CONSTANTE(VALE=0.5,);
EPSILON=DEFI_CONSTANTE(VALE=-1.E-30,);

ZERO=DEFI_CONSTANTE(VALE=0.0,);

VISCOLIQ=DEFI_FONCTION(NOM_PARA='TEMP',
                   VALE=(293.0 ,1.002E-3,
                         323.0 ,0.5468E-3,
                         393.0 ,0.2818E-3),
                   PROL_DROITE='CONSTANT',
                   PROL_GAUCHE='CONSTANT',);

VISCOGAZ=DEFI_CONSTANTE(VALE=1.8E-05,);

DVISCOL=DEFI_CONSTANTE(VALE=0.0,);

DVISCOG=DEFI_CONSTANTE(VALE=0.0,);

LI2=DEFI_LIST_REEL(DEBUT=0,
                      INTERVALLE=(_F(JUSQU_A=1.E6,
                                     NOMBRE=100,),
                                  _F(JUSQU_A=1.E7,
                                     NOMBRE=100,),
                                  _F(JUSQU_A=1.E8,
                                     NOMBRE=100,),
                                  _F(JUSQU_A=1.E9,
                                     NOMBRE=100,),),);

LI1=DEFI_LIST_REEL(DEBUT=0.10000000000000001,
                   INTERVALLE=_F(JUSQU_A=0.98999999999999999,
                                 PAS=1.E-2,),);

# LIMITATION DE LA SATURATION MAX (<1)
#CONSTBO = DEFI_CONSTANTE ( VALE : 0.99);

SLO = FORMULE(NOM_PARA='PCAP',VALE='(0.5-1.E-12*(PCAP-3700.+1.E5))');

SATUBO=CALC_FONC_INTERP(FONCTION=SLO,
                        LIST_PARA=LI2,
NOM_PARA='PCAP',
                        PROL_GAUCHE='LINEAIRE',
                        PROL_DROITE='LINEAIRE',
                        INFO=2,);

DSATBO=DEFI_CONSTANTE(VALE=-1.E-12,);

PERMO = FORMULE(NOM_PARA='SAT',VALE='''
             (1.+(0.5*(-1.+SAT**(-16.667))**0.940)**2)**(-0.5)''');

PERM11BO=CALC_FONC_INTERP(FONCTION=PERMO,
NOM_PARA='SAT',
                          LIST_PARA=LI1,
                          PROL_GAUCHE='CONSTANT',
                          PROL_DROITE='CONSTANT',
                          INFO=2,);

DPERMO = FORMULE(NOM_PARA='SAT',VALE='''
  -0.5*(1.+ (0.5*(-1.+(SAT)**(-16.667))**0.940)**2)**(-1.5)
  * (2*(0.5*(-1.+(SAT)**(-16.667))**0.940))
 *0.47*(-1.+(SAT)**(-16.667))**(-0.06)
  * (-16.667) * (SAT)**(-17.667)''');

DPR11BO=CALC_FONC_INTERP(FONCTION=DPERMO,
                         LIST_PARA=LI1,
                         NOM_PARA='SAT',
                         PROL_GAUCHE='CONSTANT',
                         PROL_DROITE='CONSTANT',
                         INFO=2,);

# COEF. DE FICK
#
# Fick variant enPV - n a pour but que de tester cette fonction puisque c est egal a un
#************************************
LIPV=DEFI_LIST_REEL(DEBUT=0.1,
                   INTERVALLE=_F(JUSQU_A=1.000001E5,
                                 PAS=1.E3,),);
FVP_PV = FORMULE(NOM_PARA='PVAP',VALE='1.+PVAP-PVAP');

FVPPV  = CALC_FONC_INTERP ( FONCTION    =  FVP_PV     ,
                            LIST_PARA   =  LIPV    ,
                            NOM_PARA    = 'PVAP'      ,
                            PROL_GAUCHE = 'CONSTANT' ,
                            PROL_DROITE = 'CONSTANT' ,
                            INFO        = 2          ,);

DM8=DEFI_CONSTANTE(VALE=5.9000000000000003E-06,);

KINTBO=DEFI_CONSTANTE(VALE=9.9999999999999995E-21,);
#
# CONDUCTIVITE THERMIQUE
#

LAMBT=DEFI_CONSTANTE(VALE=8.3300000000000001,);
LS = FORMULE(NOM_PARA='SAT',VALE='(0.3*SAT)');

LAMBS=CALC_FONC_INTERP(FONCTION=LS,
                        LIST_PARA=LI1,
                        NOM_PARA='SAT',
                        PROL_GAUCHE='LINEAIRE',
                        PROL_DROITE='LINEAIRE',
                        INFO=2,);
DLS=DEFI_CONSTANTE(VALE=0.3,);

MATERBO=DEFI_MATERIAU(ELAS=_F(E=5.15000000E8,
                              NU=0.20000000000000001,
                              RHO=2670.0,
                              ALPHA=0.,),
                      COMP_THM = 'LIQU_VAPE_GAZ',
                      THM_LIQU=_F(RHO=1000.0,
                                  UN_SUR_K=0.,
                                  ALPHA=0.,
                                  CP=4180.0,
                                  VISC=VISCOLIQ,
                                  D_VISC_TEMP=DVISCOL,),
                      THM_GAZ=_F(MASS_MOL=0.02896,
                                 CP=1017.0,
                                 VISC=VISCOGAZ,
                                 D_VISC_TEMP=ZERO,),
                      THM_VAPE_GAZ=_F(MASS_MOL=0.018,
                                      CP=1900.0,
                                      VISC=VISCOGAZ,
                                      D_VISC_TEMP=ZERO,),
                      THM_INIT=_F(TEMP=300.0,
                                  PRE1=0.0,
                                  PRE2=1.E5,
                                  PORO=0.3,
                                  PRES_VAPE=3700.0,),
                      THM_DIFFU=_F(R_GAZ=8.315,
                                   RHO=2200.0,
                                   CP=1050.0,
                                   BIOT_COEF=1.0,
                                   SATU_PRES=SATUBO,
                                   D_SATU_PRES=DSATBO,
                                   PESA_X=0.0,
                                   PESA_Y=0.0,
                                   PESA_Z=0.0,
                                   PERM_IN=KINTBO,

                                   PERM_LIQU=UN,
                                   D_PERM_LIQU_SATU=ZERO,
                                   PERM_GAZ=UN,
                                   D_PERM_SATU_GAZ=ZERO,
                                   D_PERM_PRES_GAZ=ZERO,
                                   FICKV_T=DM8,
                                   FICKV_PV=FVPPV,
                                   LAMB_T=LAMBT,
                                   LAMB_S=LAMBS,
                                   D_LB_S=DLS,
                                   LAMB_CT=0.5),);

CHMAT0=AFFE_MATERIAU(MAILLAGE=MAIL,
                     AFFE=(_F(GROUP_MA='BO',
                              MATER=MATERBO,),
                              ),);

CHAMNO=CREA_CHAMP(MAILLAGE=MAIL,
                    OPERATION='AFFE',
                    TYPE_CHAM='NOEU_DEPL_R',
                    AFFE=(_F(TOUT='OUI',
                             NOM_CMP=('PRE1','PRE2','TEMP'),
                             VALE=(0.0,0.0,0.0,),),
                          _F(TOUT='OUI',
                             NOM_CMP='TEMP',
                             VALE=0.0,),
                          _F(GROUP_NO='BO',
                             NOM_CMP='PRE1',
                             VALE=1.E5,),
                             ),);

FLUTH=AFFE_CHAR_MECA(MODELE=MODELE,
                       FLUX_THM_REP=_F(GROUP_MA=('GAUCHE','DROIT','BAS','HAUT'),
                                       FLUN=1.E6,
                                       FLUN_HYDR1=0.0,
                                       ),
                                      );

SIGINIT=CREA_CHAMP(MAILLAGE=MAIL,
                   OPERATION='AFFE',
                   TYPE_CHAM='CART_SIEF_R',
                   AFFE=(_F(GROUP_MA='BO',
                            NOM_CMP=
                            ('M11','FH11X','FH11Y','ENT11',
                             'M12','FH12X','FH12Y','ENT12',
                             'QPRIM','FHTX','FHTY','M21',
                             'FH21X','FH21Y','ENT21'),
                            VALE=
                            (0.0,0.0,0.0,0.0,
                             0.0,0.0,0.0, 2500000.0,
                             0.0,0.0,0.0,0.0,0.0,0.0,0.0),),
                             ),);

DEFLIST1 =DEFI_LIST_INST(DEFI_LIST=_F(LIST_INST = INST1),
                        ECHEC=_F(ACTION        = 'DECOUPE',
                                 SUBD_METHODE  = 'MANUEL',
                                 SUBD_PAS=10,
                                 SUBD_PAS_MINI=10.0,),)

U0=STAT_NON_LINE(MODELE=MODELE,
                 CHAM_MATER=CHMAT0,
                 EXCIT=(
                 _F(CHARGE=FLUTH,),
                                          ),
                 COMP_INCR=_F(RELATION='KIT_THH',PARM_THETA=0.57,
                              RELATION_KIT=('LIQU_VAPE_GAZ','HYDR_UTIL'),
                              ITER_INTE_MAXI=5,),
                 ETAT_INIT=_F(DEPL=CHAMNO,
                              SIGM=SIGINIT,),
                 INCREMENT=_F(LIST_INST=DEFLIST1,
                              ),
                 NEWTON=_F(MATRICE='TANGENTE',
                           REAC_ITER=1,),
                 RECH_LINEAIRE=_F(RESI_LINE_RELA=0.10000000000000001,
                                  ITER_LINE_MAXI=3,),
                 CONVERGENCE=_F(
                                RESI_COMP_RELA=1.E-6,
                                ITER_GLOB_MAXI=20),
                 SOLVEUR=_F(METHODE='MULT_FRONT',
                            STOP_SINGULIER='NON',),
                 ARCHIVAGE=_F(PAS_ARCH=1,
                              ),
                 );

U0=CALC_CHAMP(reuse=U0,VARI_INTERNE=('VARI_ELNO'),RESULTAT=U0)


U0=CALC_CHAMP(reuse =U0,

             VARI_INTERNE='VARI_NOEU',
             RESULTAT=U0,);

#################################################
IMPR_RESU(RESU=_F(RESULTAT=U0,
                  NOM_CHAM='DEPL',
                  GROUP_NO=('BO',),),);

IMPR_RESU(RESU=_F(RESULTAT=U0,
                  NOM_CHAM='VARI_NOEU',
                  GROUP_NO=('BO',),),);
#################################################

TEST_RESU(RESU=(_F(INST=1.E4,
                   RESULTAT=U0,
                   NOM_CHAM='VARI_NOEU',
                   NOEUD='N2',
                   NOM_CMP='V3',
                   VALE_CALC=4.5975668172271E+05,
                   ),
                _F(INST=1.E4,
                   RESULTAT=U0,
                   NOM_CHAM='VARI_NOEU',
                   NOEUD='N2',
                   NOM_CMP='V4',
                   VALE_CALC=0.49915844430919,
                   ),
                _F(INST=5000.0,
                   RESULTAT=U0,
                   NOM_CHAM='DEPL',
                   NOEUD='N2',
                   NOM_CMP='PRE1',
                   VALE_CALC=3.6478716514697E+08,
                   ),
                _F(INST=1.E4,
                   RESULTAT=U0,
                   NOM_CHAM='DEPL',
                   NOEUD='N2',
                   NOM_CMP='PRE1',
                   VALE_CALC=8.4145939081479E+08,
                   ),
                _F(INST=1.E4,
                   RESULTAT=U0,
                   NOM_CHAM='DEPL',
                   NOEUD='N2',
                   NOM_CMP='PRE2',
                   VALE_CALC=5.5178198463874E+05,
                   ),
                _F(INST=5000.0,
                   RESULTAT=U0,
                   NOM_CHAM='DEPL',
                   NOEUD='N2',
                   NOM_CMP='TEMP',
                   VALE_CALC=143.82955184616,
                   ),
                _F(INST=1.E4,
                   RESULTAT=U0,
                   NOM_CHAM='DEPL',
                   NOEUD='N2',
                   NOM_CMP='TEMP',
                   VALE_CALC=287.64709958866,
                   ),
                ),
          )

FIN();
