# MODIF  DATE 28/09/2004   AUTEUR GRANET S.GRANET 
# TITRE  - ECOULEMENT ORTHOTOPE SATURE EN 2D
#            CONFIGURATION MANAGEMENT OF EDF VERSION
# ======================================================================
# COPYRIGHT (C) 1991 - 2004  EDF R&D                  WWW.CODE-ASTER.ORG
# THIS PROGRAM IS FREE SOFTWARE; YOU CAN REDISTRIBUTE IT AND/OR MODIFY  
# IT UNDER THE TERMS OF THE GNU GENERAL PUBLIC LICENSE AS PUBLISHED BY  
# THE FREE SOFTWARE FOUNDATION; EITHER VERSION 2 OF THE LICENSE, OR     
# (AT YOUR OPTION) ANY LATER VERSION.                                                    
#                                                                       
# THIS PROGRAM IS DISTRIBUTED IN THE HOPE THAT IT WILL BE USEFUL, BUT   
# WITHOUT ANY WARRANTY; WITHOUT EVEN THE IMPLIED WARRANTY OF            
# MERCHANTABILITY OR FITNESS FOR A PARTICULAR PURPOSE. SEE THE GNU      
# GENERAL PUBLIC LICENSE FOR MORE DETAILS.                              
#                                                                       
# YOU SHOULD HAVE RECEIVED A COPY OF THE GNU GENERAL PUBLIC LICENSE     
# ALONG WITH THIS PROGRAM; IF NOT, WRITE TO EDF R&D CODE_ASTER,         
#    1 AVENUE DU GENERAL DE GAULLE, 92141 CLAMART CEDEX, FRANCE.        
# ======================================================================
#


DEBUT(CODE=_F(NOM='WTNP110A',NIV_PUB_WEB='INTERNET'),);
MAIL=LIRE_MAILLAGE();
INST1=DEFI_LIST_REEL(DEBUT=0.0,
                     INTERVALLE=(_F(JUSQU_A=1.,
                                    NOMBRE=1,),),);

MAIL=DEFI_GROUP(reuse =MAIL,
                MAILLAGE=MAIL,
                CREA_GROUP_NO=(_F(GROUP_MA='DROIT',),
                               _F(GROUP_MA='GAUCHE',),
                               _F(GROUP_MA='BAS',),
                               _F(DIFFE=('BAS','A'),
                                  NOM='BAS1',),
                               _F(DIFFE=('BAS1','B'),
                                  NOM='BAS2',),
                               _F(GROUP_MA='HAUT',),
                               _F(DIFFE=('HAUT','D'),
                                  NOM='HAUT1',),
                               _F(DIFFE=('HAUT1','C'),
                                  NOM='HAUT2',),
                               _F(GROUP_MA='DOM',),),);

MODELE=AFFE_MODELE(MAILLAGE=MAIL,
                   AFFE=_F(TOUT='OUI',
                           PHENOMENE='MECANIQUE',
                           MODELISATION='D_PLAN_HMD',),);



VISCOLIQ=DEFI_CONSTANTE(VALE=1.,);

DVISCOL=DEFI_CONSTANTE(VALE=0.0,);

KX=DEFI_CONSTANTE(VALE=1.,);
KY=DEFI_CONSTANTE(VALE=0.75,);


MATERDOM=DEFI_MATERIAU(ELAS=_F(E=1.,
                              NU=0.2,
                              RHO=1.0,
                              ALPHA=0.,
                              ),
                      COMP_THM = 'LIQU_SATU',
                      THM_LIQU=_F(RHO=1.0,
                                  UN_SUR_K=0.,
                                  VISC=VISCOLIQ,
                                  D_VISC_TEMP = DVISCOL    ,                                     
                                  ),
                      THM_INIT=_F(PRE1=0.0,
                                  PORO=1.,
                                  ),
                      THM_DIFFU=_F(R_GAZ=8.32,
                                   RHO=1.,
                                   BIOT_COEF=1.0,
                                   PESA_X=0.0,
                                   PESA_Y=0.0,
                                   PESA_Z=0.0,
                                   PERMIN_X=KX,
                                   PERMIN_Y=KY,
                                   PERMIN_Z=KX,
                                  ),);

CHMAT0=AFFE_MATERIAU(MAILLAGE=MAIL,
                     AFFE=_F(GROUP_MA='DOM',
                             MATER=MATERDOM,),);


CALMEC=AFFE_CHAR_MECA(MODELE=MODELE,
                      DDL_IMPO=_F(TOUT='OUI',
                                  DY=0.0,
                                  DX=0.0,),
                                  );


P_AB =DEFI_FONCTION(  NOM_PARA= 'X', 
VALE=(-0.1 ,    35.00 ,
       0.1 ,    26.00 ,),);
P_DC =DEFI_FONCTION(  NOM_PARA= 'X', 
VALE=(-0.1 ,    19.00 ,
       0.1 ,    10.00 ,),);
P_BC =DEFI_FONCTION(  NOM_PARA= 'Y', 
VALE=(-0.1 ,    26.00 ,
       0.1 ,    10.00 ,),);
P_AD =DEFI_FONCTION(  NOM_PARA= 'Y', 
VALE=(-0.1 ,    35.00 ,
       0.1 ,    19.00 ,),);



CALHAU=AFFE_CHAR_MECA_F(MODELE=MODELE,
                       DDL_IMPO=_F(GROUP_NO='HAUT2',
                                   PRE1=P_DC,),);

CALBAS=AFFE_CHAR_MECA_F(MODELE=MODELE,
                       DDL_IMPO=_F(GROUP_NO='BAS2',
                                   PRE1=P_AB,),);

CALGAU=AFFE_CHAR_MECA_F(MODELE=MODELE,
                       DDL_IMPO=_F(GROUP_NO='GAUCHE',
                                   PRE1=P_AD,),);

CALDRO=AFFE_CHAR_MECA_F(MODELE=MODELE,
                       DDL_IMPO=_F(GROUP_NO='DROIT',
                                   PRE1=P_BC,),);


U0=STAT_NON_LINE(MODELE=MODELE,
                 CHAM_MATER=CHMAT0,
                 EXCIT=(_F(CHARGE=CALDRO,),
                        _F(CHARGE=CALGAU,),
                        _F(CHARGE=CALHAU,),
                        _F(CHARGE=CALBAS,),
                        _F(CHARGE=CALMEC,),),
                 COMP_INCR=_F(RELATION='KIT_HM',
                              RELATION_KIT=('ELAS','LIQU_SATU','HYDR_UTIL'),),
                 INCREMENT=_F(LIST_INST=INST1,),
                 NEWTON=_F(MATRICE='TANGENTE',
                           REAC_ITER=1,),
                 CONVERGENCE=_F(ITER_GLOB_MAXI=50,),
                 PARM_THETA=0.57,
                 );

U0=CALC_ELEM(reuse =U0,
             MODELE=MODELE,
             CHAM_MATER=CHMAT0,
             TOUT_ORDRE='OUI',
             OPTION=('SIEF_ELNO_ELGA','VARI_ELNO_ELGA'),
             RESULTAT=U0,);

TEST_RESU(RESU=(
                 _F(RESULTAT=U0,
                   NUME_ORDRE=1,
                   NOM_CHAM='DEPL',
                   NOM_CMP='PRE1',
                   NOEUD='N689', VALE=28.8,
                   PRECISION=0.01,
                   REFERENCE='ANALYTIQUE',),
                 _F(RESULTAT=U0,
                   NUME_ORDRE=1,
                   NOM_CHAM='DEPL',
                   NOM_CMP='PRE1',
                   NOEUD='N441', VALE=16.3,
                   PRECISION=0.01,
                   REFERENCE='ANALYTIQUE',),
                 _F(RESULTAT=U0,
                   NUME_ORDRE=1,
                   NOM_CHAM='DEPL',
                   NOM_CMP='PRE1',
                   NOEUD='N341', VALE=22.5,
                   PRECISION=0.01,
                   REFERENCE='ANALYTIQUE',),
                   ),);
#
#
# VITESSE ANALYTIQUE = (45Kx; 80 Ky) = (45 ; 60)
#                   
VIT=POST_RELEVE_T(ACTION=_F(INTITULE='Vitesse',
                            GROUP_NO=('DROIT'),
                            RESULTAT=U0,
                            NOM_CHAM='SIEF_ELNO_ELGA',
                            NUME_ORDRE = 1,
                            TOUT_CMP='OUI',
                            OPERATION='EXTRACTION',),);
# Grandeurs en fonction de COOR_Y

IMPR_TABLE ( FORMAT = 'AGRAF',
             TABLE = VIT,
             TRI=_F(NOM_PARA=('COOR_Y'),
             ORDRE='CROISSANT',),
             PAGINATION=('INST'),
             NOM_PARA = ('INTITULE','INST','COOR_X','COOR_Y',
             'FH11X','FH11Y',),);
                  
FIN();
