# MODIF  DATE 05/03/2012   AUTEUR PELLET J.PELLET 
# ======================================================================
# TITRE MODELISATION D_PLAN_THHD EN QUAD8
# wtnp102d.para = tps_job 60 mem_job 128Mo ncpus 1 liste_test R
#            CONFIGURATION MANAGEMENT OF EDF VERSION
# ======================================================================
# COPYRIGHT (C) 1991 - 2012  EDF R&D                  WWW.CODE-ASTER.ORG
# THIS PROGRAM IS FREE SOFTWARE; YOU CAN REDISTRIBUTE IT AND/OR MODIFY
# IT UNDER THE TERMS OF THE GNU GENERAL PUBLIC LICENSE AS PUBLISHED BY
# THE FREE SOFTWARE FOUNDATION; EITHER VERSION 2 OF THE LICENSE, OR
# (AT YOUR OPTION) ANY LATER VERSION.
#
# THIS PROGRAM IS DISTRIBUTED IN THE HOPE THAT IT WILL BE USEFUL, BUT
# WITHOUT ANY WARRANTY; WITHOUT EVEN THE IMPLIED WARRANTY OF
# MERCHANTABILITY OR FITNESS FOR A PARTICULAR PURPOSE. SEE THE GNU
# GENERAL PUBLIC LICENSE FOR MORE DETAILS.
#
# YOU SHOULD HAVE RECEIVED A COPY OF THE GNU GENERAL PUBLIC LICENSE
# ALONG WITH THIS PROGRAM; IF NOT, WRITE TO EDF R&D CODE_ASTER,
#    1 AVENUE DU GENERAL DE GAULLE, 92141 CLAMART CEDEX, FRANCE.
# ======================================================================
# ======================================================================


DEBUT(CODE=_F(NOM='WTNP102D', NIV_PUB_WEB='INTERNET'), DEBUG=_F(SDVERI='NON'))

####################################
##### PERMEABILITE RELATIVE AU LIQ.ET SA DERIVEE (BO)
##### PERMEABILITE RELATIVE AU GAZ ET SA DERIRVEE (BO )
###### DERIVEE DE PERM21 DU GAZ PAR RAPPORT A SAT (BO )
#############################

INST1=DEFI_LIST_REEL(DEBUT=0.0,
                     INTERVALLE=_F(
                      JUSQU_A=10000.,NOMBRE=1,),);


MAIL=LIRE_MAILLAGE(FORMAT='MED',);

MAIL=DEFI_GROUP(reuse =MAIL,
                MAILLAGE=MAIL,
                CREA_GROUP_NO=(_F(GROUP_MA='BAS',),
                               _F(GROUP_MA='HAUT',),
                               _F(GROUP_MA='GAUCHE',),
                               _F(GROUP_MA='DROIT',),
                               _F(GROUP_MA='BO',),
                               ),);

MAIL=DEFI_GROUP(reuse =MAIL,
                MAILLAGE=MAIL,
                CREA_GROUP_MA=(_F(NOM='ROCHE',
                                  TOUT='OUI',),),
                CREA_GROUP_NO=(_F(NOM='ROCHES',
                                  CRIT_NOEUD='SOMMET',
                                  GROUP_MA='ROCHE',),
                               _F(NOM='BASS',
                                  CRIT_NOEUD='SOMMET',
                                  GROUP_MA='BAS',),
                               _F(NOM='HAUTS',
                                  CRIT_NOEUD='SOMMET',
                                  GROUP_MA='HAUT',),
                               _F(NOM='GAUCHES',
                                  CRIT_NOEUD='SOMMET',
                                  GROUP_MA='GAUCHE',),
                               _F(NOM='DROITS',
                                  CRIT_NOEUD='SOMMET',
                                  GROUP_MA='DROIT',),
                               _F(NOM='BOS',
                                  CRIT_NOEUD='SOMMET',
                                  GROUP_MA='BO',),
                               ),);
MODELE=AFFE_MODELE(MAILLAGE=MAIL,
                   AFFE=_F(TOUT='OUI',
                           PHENOMENE='MECANIQUE',
                           MODELISATION='D_PLAN_THHMS',),);

UN=DEFI_CONSTANTE(VALE=1.0,);
UNDEMI=DEFI_CONSTANTE(VALE=0.5,);
EPSILON=DEFI_CONSTANTE(VALE=-1.E-30,);

ZERO=DEFI_CONSTANTE(VALE=0.0,);

VISCOLIQ=DEFI_FONCTION(NOM_PARA='TEMP',
                   VALE=(293.0 ,1.002E-3,
                         323.0 ,0.5468E-3,
                         393.0 ,0.2818E-3),
                   PROL_DROITE='CONSTANT',
                   PROL_GAUCHE='CONSTANT',);

VISCOGAZ=DEFI_CONSTANTE(VALE=1.8E-05,);

DVISCOL=DEFI_CONSTANTE(VALE=0.0,);

DVISCOG=DEFI_CONSTANTE(VALE=0.0,);

LI2=DEFI_LIST_REEL(DEBUT=0,
                      INTERVALLE=(_F(JUSQU_A=1.E6,
                                     NOMBRE=100,),
                                  _F(JUSQU_A=1.E7,
                                     NOMBRE=100,),
                                  _F(JUSQU_A=1.E8,
                                     NOMBRE=100,),
                                  _F(JUSQU_A=1.E9,
                                     NOMBRE=100,),),);

LI1=DEFI_LIST_REEL(DEBUT=0.10000000000000001,
                   INTERVALLE=_F(JUSQU_A=0.98999999999999999,
                                 PAS=1.E-2,),);

# LIMITATION DE LA SATURATION MAX (<1)
#CONSTBO = DEFI_CONSTANTE ( VALE : 0.99);

SLO = FORMULE(NOM_PARA='PCAP',VALE='0.5-1.E-12*(PCAP-3700.+1.E5)');

SATUBO=CALC_FONC_INTERP(FONCTION=SLO,
                        LIST_PARA=LI2,
NOM_PARA='PCAP',
                        PROL_GAUCHE='LINEAIRE',
                        PROL_DROITE='LINEAIRE',
                        INFO=2,);

DSATBO=DEFI_CONSTANTE(VALE=-1.E-12,);

PERMO = FORMULE(NOM_PARA='SAT',VALE='''
             (1.+(0.5*(-1.+SAT**(-16.667))**0.940)**2)**(-0.5)''');

PERM11BO=CALC_FONC_INTERP(FONCTION=PERMO,
NOM_PARA='SAT',
                          LIST_PARA=LI1,
                          PROL_GAUCHE='CONSTANT',
                          PROL_DROITE='CONSTANT',
                          INFO=2,);

DPERMO = FORMULE(NOM_PARA='SAT',VALE='''
  -0.5*(1.+ (0.5*(-1.+(SAT)**(-16.667))**0.940)**2)**(-1.5)
  * (2*(0.5*(-1.+(SAT)**(-16.667))**0.940))
 *0.47*(-1.+(SAT)**(-16.667))**(-0.06)
  * (-16.667) * (SAT)**(-17.667)''');

DPR11BO=CALC_FONC_INTERP(FONCTION=DPERMO,
                         LIST_PARA=LI1,
                         NOM_PARA='SAT',
                         PROL_GAUCHE='CONSTANT',
                         PROL_DROITE='CONSTANT',
                         INFO=2,);

# COEF. DE FICK
#
# Fick variant enPV - n a pour but que de tester cette fonction puisque c est egal a un
#************************************
LIPV=DEFI_LIST_REEL(DEBUT=0.1,
                   INTERVALLE=_F(JUSQU_A=1.000001E5,
                                 PAS=1.E3,),);
FVP_PV = FORMULE(NOM_PARA='PVAP',VALE='1.+PVAP-PVAP');

FVPPV  = CALC_FONC_INTERP ( FONCTION    =  FVP_PV     ,
                            LIST_PARA   =  LIPV    ,
                            NOM_PARA    = 'PVAP'      ,
                            PROL_GAUCHE = 'CONSTANT' ,
                            PROL_DROITE = 'CONSTANT' ,
                            INFO        = 2          ,);

DM8=DEFI_CONSTANTE(VALE=5.9000000000000003E-06,);

KINTBO=DEFI_CONSTANTE(VALE=9.9999999999999995E-21,);
#
# CONDUCTIVITE THERMIQUE
#

LAMBT=DEFI_CONSTANTE(VALE=8.3300000000000001,);
LS = FORMULE(NOM_PARA='SAT',VALE='(0.3*SAT)');

LAMBS=CALC_FONC_INTERP(FONCTION=LS,
                        LIST_PARA=LI1,
                        NOM_PARA='SAT',
                        PROL_GAUCHE='LINEAIRE',
                        PROL_DROITE='LINEAIRE',
                        INFO=2,);
DLS=DEFI_CONSTANTE(VALE=0.3,);

MATERBO=DEFI_MATERIAU(ELAS=_F(E=5.15000000E8,
                              NU=0.20000000000000001,
                              RHO=2670.0,
                              ALPHA=0.,),
                      COMP_THM = 'LIQU_VAPE_GAZ',
                      THM_LIQU=_F(RHO=1000.0,
                                  UN_SUR_K=0.,
                                  ALPHA=0.,
                                  CP=4180.0,
                                  VISC=VISCOLIQ,
                                  D_VISC_TEMP=DVISCOL,),
                      THM_GAZ=_F(MASS_MOL=0.02896,
                                 CP=1017.0,
                                 VISC=VISCOGAZ,
                                 D_VISC_TEMP=ZERO,),
                      THM_VAPE_GAZ=_F(MASS_MOL=0.018,
                                      CP=1900.0,
                                      VISC=VISCOGAZ,
                                      D_VISC_TEMP=ZERO,),
                      THM_INIT=_F(TEMP=300.0,
                                  PRE1=0.0,
                                  PRE2=1.E5,
                                  PORO=0.3,
                                  PRES_VAPE=3700.0,
                                  DEGR_SATU=0.78000000000000003,),
                      THM_DIFFU=_F(R_GAZ=8.315,
                                   RHO=2200.0,
                                   CP=1050.0,
                                   BIOT_COEF=1.0,
                                   SATU_PRES=SATUBO,
                                   D_SATU_PRES=DSATBO,
                                   PESA_X=0.0,
                                   PESA_Y=0.0,
                                   PESA_Z=0.0,
                                   PERMIN_X=KINTBO,
                                   PERMIN_Y=KINTBO,
                                   PERMIN_Z=KINTBO,
                                   PERM_LIQU=UN,
                                   D_PERM_LIQU_SATU=ZERO,
                                   PERM_GAZ=UN,
                                   D_PERM_SATU_GAZ=ZERO,
                                   D_PERM_PRES_GAZ=ZERO,
                                   FICKV_T=DM8,
                                   FICKV_PV=FVPPV,
                                   LAMB_T=LAMBT,
                                   LAMB_S=LAMBS,
                                   D_LB_S=DLS,
                                   LAMB_CT=0.5),);

CHMAT0=AFFE_MATERIAU(MAILLAGE=MAIL,
                     AFFE=(_F(GROUP_MA='BO',
                              MATER=MATERBO,),
                              ),);

CHAMNO=CREA_CHAMP(MAILLAGE=MAIL,
                    OPERATION='AFFE',
                    TYPE_CHAM='NOEU_DEPL_R',
                    AFFE=(_F(GROUP_NO='ROCHES',
                             NOM_CMP='TEMP',
                             VALE=0.0,),
                          _F(GROUP_NO='BOS',
                             NOM_CMP='PRE1',
                             VALE=1.E5,),
                             ),);

FLUTH=AFFE_CHAR_MECA(MODELE=MODELE,
                       FLUX_THM_REP=_F(GROUP_MA=('GAUCHE','DROIT','BAS','HAUT'),
                                       FLUN=1.E6,
                                       FLUN_HYDR1=0.0,
                                       ),
                                      );

CL_MECA=AFFE_CHAR_MECA(MODELE=MODELE,
                       DDL_IMPO=_F(GROUP_NO='BO',
                                       DX = 0.,
                                       DY = 0. ,
                                       ),
                                      );

SIGINIT=CREA_CHAMP(MAILLAGE=MAIL,
                   OPERATION='AFFE',
                   TYPE_CHAM='CART_SIEF_R',
                   AFFE=(_F(GROUP_MA='BO',
                            NOM_CMP=
                            ('M11','FH11X','FH11Y','ENT11',
                             'M12','FH12X','FH12Y','ENT12',
                             'QPRIM','FHTX','FHTY','M21',
                             'FH21X','FH21Y','ENT21',
                             'SIXX','SIYY','SIZZ','SIXY','SIXZ','SIYZ','SIP'),
                            VALE=
                            (0.0,0.0,0.0,0.0,
                             0.0,0.0,0.0, 2500000.0,
                             0.0,0.0,0.0,0.0,0.0,0.0,0.0,
                             0.0,0.0,0.0,0.0,0.0,0.0,0.0),),
                             ),);

DEFLIST1 =DEFI_LIST_INST(DEFI_LIST=_F(LIST_INST = INST1),
                        ECHEC=_F(EVENEMENT     = 'ERREUR',
                                 ACTION        = 'DECOUPE',
                                 SUBD_METHODE  = 'MANUEL',
                                 SUBD_PAS      = 10,
                                 SUBD_PAS_MINI = 10.0,),)

U0=STAT_NON_LINE(MODELE=MODELE,
                 CHAM_MATER=CHMAT0,
                 EXCIT=(
                 _F(CHARGE=FLUTH,),
                 _F(CHARGE=CL_MECA,),
                                          ),
                 COMP_INCR=_F(RELATION='KIT_THH',PARM_THETA=0.57,
                              RELATION_KIT=('LIQU_VAPE_GAZ','HYDR_UTIL'),
                              ITER_INTE_MAXI=5,),
                 ETAT_INIT=_F(DEPL=CHAMNO,
                              SIGM=SIGINIT,),
                 INCREMENT=_F(LIST_INST=DEFLIST1,
                              NUME_INST_FIN=1,
                              ),
                 NEWTON=_F(MATRICE='TANGENTE',
                           REAC_ITER=1,),
                 RECH_LINEAIRE=_F(RESI_LINE_RELA=0.10000000000000001,
                                  ITER_LINE_MAXI=3,),
                 CONVERGENCE=_F(
                                RESI_GLOB_RELA=1.E-6,
                                ITER_GLOB_MAXI=20),
                 SOLVEUR=_F(METHODE='MULT_FRONT',
                            STOP_SINGULIER='NON',),
                 ARCHIVAGE=_F(PAS_ARCH=1,
                              ),
                 );

U0=CALC_ELEM(reuse =U0,
             TOUT_ORDRE='OUI',
             OPTION=('VARI_ELNO'),
             RESULTAT=U0,);

U0=CALC_CHAMP(reuse =U0,
             TOUT_ORDRE='OUI',
             VARI_INTERNE='VARI_NOEU',
             RESULTAT=U0,);

DPVP=CALC_ELEM(RESULTAT=U0,
               OPTION='VAEX_ELNO',NOM_VARI='DPVP'
               )
DPVP=CALC_CHAMP(reuse=DPVP,
             RESULTAT=DPVP,
             VARI_INTERNE='VAEX_NOEU',NOM_VARI='DPVP'
             )

SATLIQ=CALC_ELEM(RESULTAT=U0,OPTION='VAEX_ELNO',NOM_VARI='SATLIQ')
SATLIQ=CALC_CHAMP(reuse=SATLIQ,RESULTAT=SATLIQ,VARI_INTERNE='VAEX_NOEU',NOM_VARI='SATLIQ',)
SATEAU=CALC_ELEM(RESULTAT=U0,OPTION='VAEX_ELGA',NOM_VARI='SATLIQ')

#################################################
#IMPR_RESU(RESU=_F(RESULTAT=U0,
#                  NOM_CHAM='DEPL',
#                  GROUP_NO=('BO',),),);
#
#IMPR_RESU(RESU=_F(RESULTAT=U0,
#                  NOM_CHAM='VARI_NOEU',
#                  GROUP_NO=('BO',),),);
#################################################

TEST_RESU(RESU=(
                _F(RESULTAT=DPVP,
                   INST=1000.0,
                   NOM_CHAM='VAEX_ELNO',
                   NOM_CMP='X1',
                   MAILLE='M2',
                   NOEUD='N2',
                   VALE=1.04355E+04,
                   PRECISION=1.E-3,
                   REFERENCE='NON_REGRESSION',),
                _F(RESULTAT=DPVP,
                   INST=1.00000E+04,
                   NOM_CHAM='VAEX_NOEU',
                   NOM_CMP='X1',
                   NOEUD='N2',
                   VALE=4.59768E+05,
                   PRECISION=1.E-3,
                   REFERENCE='NON_REGRESSION',
                   VERSION = '9.2.18', ),
                _F(RESULTAT=SATLIQ,
                   INST=1.00000E+04,
                   NOM_CHAM='VAEX_NOEU',
                   NOM_CMP='X1',
                   NOEUD='N2',
                   VALE=4.99158E-01,
                   PRECISION=1.E-3,
                   REFERENCE='NON_REGRESSION',
                   VERSION = '9.2.18', ),
                _F(RESULTAT=SATEAU,
                   INST=1.00000E+04,
                   NOM_CHAM='VAEX_ELGA',
                   NOM_CMP='X1',
                   POINT=1,
                   MAILLE='M1',
                   VALE=4.99158E-01,
                   PRECISION=1.E-3,
                   REFERENCE='NON_REGRESSION',
                   VERSION = '9.2.18', ),
                   ),
        );

TEST_RESU(RESU=(
                _F(RESULTAT=U0,
                   INST=1.00000E+04,
                   NOM_CHAM='VARI_NOEU',
                   NOM_CMP='V3',
                   NOEUD='N2',
                   VALE=4.59768E+05,
                   PRECISION=1.E-3,
                   REFERENCE='NON_REGRESSION',
                   VERSION = '9.2.18', ),
                _F(RESULTAT=U0,
                   INST=1.00000E+04,
                   NOM_CHAM='VARI_NOEU',
                   NOM_CMP='V4',
                   NOEUD='N2',
                   VALE=4.99158E-01,
                   PRECISION=1.E-3,
                   REFERENCE='NON_REGRESSION',
                   VERSION = '9.2.18', ),
                _F(RESULTAT=U0,
                   INST=1.00000E+04,
                   NOM_CHAM='DEPL',
                   NOM_CMP='PRE1',
                   NOEUD='N2',
                   VALE=8.41453E+08,
                   PRECISION=1.E-3,
                   REFERENCE='NON_REGRESSION',
                   VERSION = '9.2.18', ),
                _F(RESULTAT=U0,
                   INST=1.00000E+04,
                   NOM_CHAM='DEPL',
                   NOM_CMP='PRE2',
                   NOEUD='N2',
                   VALE=5.51779E+05,
                   PRECISION=1.E-3,
                   REFERENCE='NON_REGRESSION',
                   VERSION = '9.2.18', ),
                _F(RESULTAT=U0,
                   INST=1.00000E+04,
                   NOM_CHAM='DEPL',
                   NOM_CMP='TEMP',
                   NOEUD='N2',
                   VALE=2.87647E+02,
                   PRECISION=1.E-3,
                   REFERENCE='NON_REGRESSION',
                   VERSION = '9.2.18', ),

),);

# *******************************************************************
#
# VALIDATION INFORMATIQUE DE CALC_ELEM AVEC DEUX MODELES DIFFERENTS
# LE CALCUL EN LUI MEME N'A PAS D'INTERET
#
# *******************************************************************

MODELE2=AFFE_MODELE(MAILLAGE=MAIL,
                   AFFE=_F(GROUP_MA=('BO1','HAUT'),
                           PHENOMENE='MECANIQUE',
                           MODELISATION='D_PLAN_THHMS',),);

INST2=DEFI_LIST_REEL(DEBUT=0.0,
                     INTERVALLE=_F(
                      JUSQU_A=10000.,NOMBRE=2,),);


FLUTH2=AFFE_CHAR_MECA(MODELE=MODELE2,
                       FLUX_THM_REP=_F(GROUP_MA=('HAUT'),
                                       FLUN=1.E6,
                                       FLUN_HYDR1=0.0,
                                       ),
                                      );

DEFLIST2 =DEFI_LIST_INST(DEFI_LIST=_F(LIST_INST = INST2),
                        ECHEC=_F(EVENEMENT    = 'ERREUR',
                                 ACTION       = 'DECOUPE',
                                 SUBD_METHODE = 'MANUEL',
                                 SUBD_PAS=10,
                                 SUBD_PAS_MINI=10.0,),)

U2=STAT_NON_LINE(MODELE=MODELE2,
                 CHAM_MATER=CHMAT0,
                 EXCIT=(
                 _F(CHARGE=FLUTH2,),
                 _F(CHARGE=CL_MECA,),
                                          ),
                 COMP_INCR=_F(RELATION='KIT_THH',PARM_THETA=0.57,
                              RELATION_KIT=('LIQU_VAPE_GAZ','HYDR_UTIL'),
                              ITER_INTE_MAXI=5,),
                 INCREMENT=_F(LIST_INST=DEFLIST2,
                              NUME_INST_FIN=1,
                              ),
                 NEWTON=_F(MATRICE='TANGENTE',
                           REAC_ITER=1,),
                 CONVERGENCE=_F(
                                RESI_GLOB_RELA=1.E-6,
                                ITER_GLOB_MAXI=20),
                 );

U2=STAT_NON_LINE(reuse=U2,
                 MODELE=MODELE,
                 CHAM_MATER=CHMAT0,
                 EXCIT=(
                 _F(CHARGE=FLUTH,),
                 _F(CHARGE=CL_MECA,),
                                          ),
                 COMP_INCR=_F(RELATION='KIT_THH',PARM_THETA=0.57,
                              RELATION_KIT=('LIQU_VAPE_GAZ','HYDR_UTIL'),
                              ITER_INTE_MAXI=5,),
                 ETAT_INIT=_F(DEPL=CHAMNO,
                              SIGM=SIGINIT,),
                 INCREMENT=_F(LIST_INST=DEFLIST2,
                              NUME_INST_FIN=2,
                              ),
                 NEWTON=_F(MATRICE='TANGENTE',
                           REAC_ITER=1,),
                 CONVERGENCE=_F(
                                RESI_GLOB_RELA=1.E-6,
                                ITER_GLOB_MAXI=20),

                 );

U2=CALC_ELEM(reuse =U2,
             RESULTAT=U2,
             OPTION='SIEF_ELNO',);

#IMPR_RESU(RESU=_F(RESULTAT=U2),)

TEST_RESU(RESU=(
                _F(RESULTAT=U2,
                   INST=1.000000000E+04,
                   NOM_CHAM='SIEF_ELNO',
                   NOM_CMP='M11',
                   MAILLE='M11',
                   NOEUD='N4',
                   VALE=-1.82654E-01,
                   PRECISION=1.E-3,
                   REFERENCE='NON_REGRESSION',
                   VERSION = '9.2.18', ),),);

FIN();

