# MODIF  DATE 16/08/2005   AUTEUR ROMEO R.FERNANDES 
# ======================================================================
# TITRE TEST ELEMENTAIRE DU SUINTEMENT : EPONGE SOUS PRESSION
#            CONFIGURATION MANAGEMENT OF EDF VERSION
# ======================================================================
# COPYRIGHT (C) 1991 - 2005  EDF R&D                  WWW.CODE-ASTER.ORG
# THIS PROGRAM IS FREE SOFTWARE; YOU CAN REDISTRIBUTE IT AND/OR MODIFY  
# IT UNDER THE TERMS OF THE GNU GENERAL PUBLIC LICENSE AS PUBLISHED BY  
# THE FREE SOFTWARE FOUNDATION; EITHER VERSION 2 OF THE LICENSE, OR     
# (AT YOUR OPTION) ANY LATER VERSION.                                                    
#                                                                       
# THIS PROGRAM IS DISTRIBUTED IN THE HOPE THAT IT WILL BE USEFUL, BUT   
# WITHOUT ANY WARRANTY; WITHOUT EVEN THE IMPLIED WARRANTY OF            
# MERCHANTABILITY OR FITNESS FOR A PARTICULAR PURPOSE. SEE THE GNU      
# GENERAL PUBLIC LICENSE FOR MORE DETAILS.                              
#                                                                       
# YOU SHOULD HAVE RECEIVED A COPY OF THE GNU GENERAL PUBLIC LICENSE     
# ALONG WITH THIS PROGRAM; IF NOT, WRITE TO EDF R&D CODE_ASTER,         
#    1 AVENUE DU GENERAL DE GAULLE, 92141 CLAMART CEDEX, FRANCE.        
# ======================================================================
# ======================================================================

DEBUT(CODE=_F(NOM='WTNP111B',NIV_PUB_WEB='INTERNET'),);

MAILIN=LIRE_MAILLAGE();

MAIL = CREA_MAILLAGE(
                         MAILLAGE  = MAILIN,
                         LINE_QUAD = _F(TOUT = 'OUI'),
                       )

MAIL=DEFI_GROUP(reuse =MAIL,  
                MAILLAGE=MAIL,
                CREA_GROUP_NO=(_F(GROUP_MA='GAUCHE',),
                               _F(GROUP_MA='DROITE',),
                               _F(GROUP_MA='HAUT',),
                               _F(GROUP_MA='BAS',),
                                _F(NOM = 'SOM_BAS',
                                 CRIT_NOEUD='SOMMET',
                                 GROUP_MA = 'BAS'),
                                _F(NOM = 'SOM_HAUT',
                                 CRIT_NOEUD='SOMMET',
                                 GROUP_MA = 'HAUT'),
                                _F(NOM = 'SOM_GAUCHE',
                                 CRIT_NOEUD='SOMMET',
                                 GROUP_MA = 'GAUCHE'),
                                _F(NOM = 'MIL_DROITE',
                                 CRIT_NOEUD='MILIEU',
                                 GROUP_MA = 'DROITE'),
                                                       ))

MODELE=AFFE_MODELE(MAILLAGE=MAIL,
                   AFFE=_F(TOUT='OUI',
                           PHENOMENE='MECANIQUE',
                           MODELISATION='D_PLAN_HMS',),);

LI=DEFI_LIST_REEL(DEBUT=0.0,
                  INTERVALLE=(_F(JUSQU_A=20.0,
                                 NOMBRE=20,),
                                 ),);

viscoliq=DEFI_CONSTANTE(VALE=0.001,);

dviscoli=DEFI_CONSTANTE(VALE=0.0,);

KINT=DEFI_CONSTANTE(VALE=1.0E-19,);

FONCT1=DEFI_FONCTION(   NOM_PARA='INST',
                           VALE=( 0., 2000., 20., 0., ) )

MAT=DEFI_MATERIAU(ELAS=_F(E=51000000.0,
                          NU=0.49,
                          RHO=2600.0,
                          ALPHA=0.0,),
                  COMP_THM='LIQU_SATU',
                  THM_INIT=_F(PRE1=0,
                              PORO=0.4,
                              TEMP=20.0,),
                  THM_DIFFU=_F(RHO=1960,
                               BIOT_COEF=1.0,
                               PESA_X=0.0,
                               PESA_Y=-9.81,
                               PESA_Z=0.0,
                               PERM_IN=KINT),
                  THM_LIQU=_F(RHO=1000.0,
                              UN_SUR_K=0.0,
                              VISC=viscoliq,
                              D_VISC_TEMP=dviscoli,),);

CHMATO=AFFE_MATERIAU(MAILLAGE=MAIL,
                     AFFE=_F(TOUT='OUI',
                             MATER=MAT,),);

CHAR0=AFFE_CHAR_MECA(MODELE=MODELE,
                     DDL_IMPO=(
                               _F(GROUP_MA=('GAUCHE','DROITE','BAS','HAUT'),
                                  DX=0.0,DY=0.0,),
                               _F(GROUP_NO=('SOM_GAUCHE','SOM_BAS','SOM_HAUT'),
                                  PRE1=1000.0,),
                                                         ))

CHAR1=AFFE_CHAR_MECA_F(MODELE=MODELE,
                     CONTACT=_F(APPARIEMENT='NON',
                                GROUP_MA_ESCL=('DROITE'),
                                SANS_GROUP_NO=('MIL_DROITE'),
                                NOM_CHAM='PRE1',
                                COEF_IMPO=FONCT1,
                                COEF_MULT_ESCL=1.0,),);


MESTAT=STAT_NON_LINE(MODELE=MODELE,
                     CHAM_MATER=CHMATO,
                     EXCIT=(_F(CHARGE=CHAR0,),
                            _F(CHARGE=CHAR1,),
                                                   ),
                     COMP_INCR=_F(RELATION='KIT_HM',
                                  RELATION_KIT=('ELAS','LIQU_SATU','HYDR_UTIL',),),
                     INCREMENT=_F(LIST_INST=LI,),
                     NEWTON=_F(MATRICE='TANGENTE',
                               REAC_ITER=20,),
                     CONVERGENCE=_F(ITER_GLOB_MAXI=10,
                                    ITER_INTE_MAXI=5,),
                     PARM_THETA=1.0,);

TEST_RESU(RESU=_F(RESULTAT=MESTAT,
                  NUME_ORDRE=1,
                  NOM_CHAM='DEPL',
                  NOM_CMP='PRE1',
                  NOEUD='NO8',
                  VALE=1000.0,
                  PRECISION=1.E-6,
                  REFERENCE='ANALYTIQUE'))

TEST_RESU(RESU=_F(RESULTAT=MESTAT,
                  NUME_ORDRE=3,
                  NOM_CHAM='DEPL',
                  NOM_CMP='PRE1',
                  NOEUD='NO8',
                  VALE=1000.0,
                  PRECISION=1.E-6,
                  REFERENCE='ANALYTIQUE'))

TEST_RESU(RESU=_F(RESULTAT=MESTAT,
                  NUME_ORDRE=11,
                  NOM_CHAM='DEPL',
                  NOM_CMP='PRE1',
                  NOEUD='NO8',
                  VALE=900.0,
                  PRECISION=1.E-6,
                  REFERENCE='ANALYTIQUE'))

TEST_RESU(RESU=_F(RESULTAT=MESTAT,
                  NUME_ORDRE=13,
                  NOM_CHAM='DEPL',
                  NOM_CMP='PRE1',
                  NOEUD='NO8',
                  VALE=700.0,
                  PRECISION=1.E-6,
                  REFERENCE='ANALYTIQUE'))

TEST_RESU(RESU=_F(RESULTAT=MESTAT,
                  NUME_ORDRE=19,
                  NOM_CHAM='DEPL',
                  NOM_CMP='PRE1',
                  NOEUD='NO8',
                  VALE=100.0,
                  PRECISION=1.E-6,
                  REFERENCE='ANALYTIQUE'))

FIN();
