# MODIF  DATE 07/02/2012   AUTEUR PELLET J.PELLET 
# TITRE MODELISATION HM D'UN BARREAU SATURE EN LIQUIDE COMPRESSIBLE
#            CONFIGURATION MANAGEMENT OF EDF VERSION
# ======================================================================
# COPYRIGHT (C) 1991 - 2012  EDF R&D                  WWW.CODE-ASTER.ORG
# THIS PROGRAM IS FREE SOFTWARE; YOU CAN REDISTRIBUTE IT AND/OR MODIFY
# IT UNDER THE TERMS OF THE GNU GENERAL PUBLIC LICENSE AS PUBLISHED BY
# THE FREE SOFTWARE FOUNDATION; EITHER VERSION 2 OF THE LICENSE, OR
# (AT YOUR OPTION) ANY LATER VERSION.
#
# THIS PROGRAM IS DISTRIBUTED IN THE HOPE THAT IT WILL BE USEFUL, BUT
# WITHOUT ANY WARRANTY; WITHOUT EVEN THE IMPLIED WARRANTY OF
# MERCHANTABILITY OR FITNESS FOR A PARTICULAR PURPOSE. SEE THE GNU
# GENERAL PUBLIC LICENSE FOR MORE DETAILS.
#
# YOU SHOULD HAVE RECEIVED A COPY OF THE GNU GENERAL PUBLIC LICENSE
# ALONG WITH THIS PROGRAM; IF NOT, WRITE TO EDF R&D CODE_ASTER,
#    1 AVENUE DU GENERAL DE GAULLE, 92141 CLAMART CEDEX, FRANCE.
# ======================================================================
# wtnp129a.para = tps_job 60 mem_job 200Mo ncpus 1 liste_test R
# RESOLUTION COUPLEE
#
# Pour la validation, on regarde les valeurs de DY, PRE1 et SIYY
# en 5 noeuds situes sur le bord droit de la structure
#
# On regarde a 2 instants : 1. et 10 secondes.
# La solution est 1D selon l'axe vertical.
#
#   p = 3.E6 Pa
#
#    *---* N4   Y=5
#    !   !
#    !   !
#    !   ! N23
#    !   !
#    !   !
#    !   ! N27  Y=0
#    !   !
#    !   !
#    !   ! N31
#    !   !
#    !   !
#    *---* N1   Y=-5

DEBUT(CODE=_F(NOM='WTNP129A',NIV_PUB_WEB='INTERNET'),DEBUG=_F(SDVERI='NON'))
# SDVERI='NON' car la verification est trop couteuse en CPU

MAIL=LIRE_MAILLAGE(FORMAT='MED',);

DEFI_GROUP(reuse=MAIL,MAILLAGE=MAIL, CREA_GROUP_NO=_F( TOUT_GROUP_MA = 'OUI'))

MODELE=AFFE_MODELE(MAILLAGE=MAIL,
                   AFFE=_F(TOUT='OUI',
                           PHENOMENE='MECANIQUE',
                           MODELISATION='D_PLAN_HMS',),);

##############################
# LISTE DES INSTANTS DE CALCUL
##############################

LI=DEFI_LIST_REEL(DEBUT=0.0,
                  INTERVALLE=(_F(JUSQU_A=1.E-4,
                                 NOMBRE=10,),
                              _F(JUSQU_A=1.E-3,
                                 NOMBRE=9,),
                              _F(JUSQU_A=1.E-2,
                                 NOMBRE=10,),
                              _F(JUSQU_A=0.10000000000000001,
                                 NOMBRE=20,),
                              _F(JUSQU_A=1.0,
                                 NOMBRE=25,),
                              _F(JUSQU_A=10,
                                 NOMBRE=75,),),);

UN=DEFI_CONSTANTE(VALE=1.0,);

ZERO=DEFI_CONSTANTE(VALE=0.0,);

BIDON=DEFI_CONSTANTE(VALE=0.0,);

KINT=DEFI_CONSTANTE(VALE=1.E-08,);

MATERIAU=DEFI_MATERIAU(ELAS=_F(E=5.8E9,
                               NU=0.0,
                               RHO=2800.0,
                               ALPHA=1.0000000000000001E-05,),
                       COMP_THM = 'LIQU_SATU',
                       THM_LIQU=_F(RHO=1000.0,
                                   UN_SUR_K=0.5E-9,
                                   VISC=UN,
                                   D_VISC_TEMP=ZERO,),
                       THM_INIT=_F(PRE1=1.E6,
                                   PORO=0.5,),
                       THM_DIFFU=_F(
                                    RHO=2800.0,
                                    BIOT_COEF=1.0,
                                    PESA_X=0.0,
                                    PESA_Y=0.0,
                                    PESA_Z=0.0,
                                    PERM_IN=KINT,
                                    ),);

CHMAT0=AFFE_MATERIAU(MAILLAGE=MAIL,
                     AFFE=_F(TOUT='OUI',
                             MATER=MATERIAU,),);

CHAR=AFFE_CHAR_CINE(MODELE=MODELE,
                    MECA_IMPO=(_F(GROUP_MA='HAUT',
                                 PRE1=2000000.,),
                              _F(GROUP_MA='BAS',
                                 DX=0.0,
                                 DY=0.0,),
                              _F(GROUP_MA=('GAUCHE','DROITE',),
                                 DX=0.0,),),);

RESU1=STAT_NON_LINE(MODELE=MODELE,
                    CHAM_MATER=CHMAT0,
                    EXCIT=_F(CHARGE=CHAR,),
                    COMP_INCR=_F(RELATION='KIT_HM',
                                 RELATION_KIT=('ELAS','LIQU_SATU','HYDR_UTIL'),),
                    INCREMENT=_F(LIST_INST=LI,),);

RESU1=CALC_ELEM( reuse      = RESU1,
              OPTION     = ('SIEF_ELNO','VARI_ELNO','SIEQ_ELNO'),
              RESULTAT   = RESU1,
              );

RESU1= CALC_NO( reuse    = RESU1,
                   RESULTAT = RESU1,
                   OPTION   = ( 'SIEF_NOEU', 'VARI_NOEU','SIEQ_NOEU')
                  )

#########################
# Tests de non-regression
#########################

#########
# Tests sur la pression a l'ordre 74 (t=1 s)
#########

EXDEP1=POST_RELEVE_T(ACTION=_F(OPERATION='EXTRACTION',
                               INTITULE='MAIL',
                               RESULTAT=RESU1,
                               NOM_CHAM='DEPL',
                               TOUT_CMP='OUI',
                               NUME_ORDRE=74,
                               GROUP_NO='DROITE',),);

IMPR_TABLE(TABLE=EXDEP1,
           FORMAT='TABLEAU',
           UNITE=8,
           NOM_PARA=('INST','NOEUD','COOR_X','COOR_Y','PRE1','DY',),);

TEST_TABLE(TABLE     = EXDEP1,
           FILTRE    = _F(NOM_PARA = 'NOEUD',
                          VALE_K   = 'N23',),
           NOM_PARA  = 'PRE1',
           VALE      =  1.4477057505633E+06,
           PRECISION =  1.E-10,
           REFERENCE = 'NON_REGRESSION',
           VERSION   = '11.0.25');
TEST_TABLE(TABLE     = EXDEP1,
           FILTRE    = _F(NOM_PARA = 'NOEUD',
                          VALE_K   = 'N27',),
           NOM_PARA  = 'PRE1',
           VALE      = 9.8618261792096E+05,
           PRECISION =  1.E-10,
           REFERENCE = 'NON_REGRESSION',
           VERSION   = '11.0.25');
TEST_TABLE(TABLE     = EXDEP1,
           FILTRE    = _F(NOM_PARA = 'NOEUD',
                          VALE_K   = 'N31',),
           NOM_PARA  = 'PRE1',
           PRECISION =  1.E-10,
           VALE      = 6.8416253970115E+05,
           REFERENCE = 'NON_REGRESSION',
           VERSION   = '11.0.25');
TEST_TABLE(TABLE     = EXDEP1,
           FILTRE    = _F(NOM_PARA = 'NOEUD',
                          VALE_K   = 'N1',),
           NOM_PARA  = 'PRE1',
           VALE      = 5.7968660741362E+05,
           PRECISION =  1.E-10,
           REFERENCE = 'NON_REGRESSION',
           VERSION   = '11.0.25');

#########
# Tests sur la pression a l'ordre 149 (t=10 s)
#########

EXDEP2=POST_RELEVE_T(ACTION=_F(OPERATION='EXTRACTION',
                               INTITULE='MAIL',
                                RESULTAT=RESU1,
                                NOM_CHAM='DEPL',
                                TOUT_CMP='OUI',
                                NUME_ORDRE=149,
                                GROUP_NO='DROITE',),);

IMPR_TABLE(TABLE=EXDEP2,
           FORMAT='TABLEAU',
           UNITE=8,
           NOM_PARA=('INST','NOEUD','COOR_X','COOR_Y','PRE1','DY',),);

TEST_TABLE(TABLE     = EXDEP2,
           FILTRE    = _F(NOM_PARA = 'NOEUD',
                          VALE_K   = 'N23',),
           NOM_PARA  = 'PRE1',
           PRECISION =  1.E-10,
           VALE      =  1.9965914222579E+06,
           REFERENCE = 'NON_REGRESSION',
           VERSION   = '11.0.25');
TEST_TABLE(TABLE     = EXDEP2,
           FILTRE    = _F(NOM_PARA = 'NOEUD',
                          VALE_K   = 'N27',),
           PRECISION =  1.E-10,
           NOM_PARA  = 'PRE1',
           VALE      = 1.9937017653319E+06,
           REFERENCE = 'NON_REGRESSION',
           VERSION   = '11.0.25');
TEST_TABLE(TABLE     = EXDEP2,
           FILTRE    = _F(NOM_PARA = 'NOEUD',
                          VALE_K   = 'N31',),
           NOM_PARA  = 'PRE1',
           PRECISION =  1.E-10,
           VALE      = 1.9917709562082E+06,
           REFERENCE = 'NON_REGRESSION',
           VERSION   = '11.0.25');
TEST_TABLE(TABLE     = EXDEP2,
           FILTRE    = _F(NOM_PARA = 'NOEUD',
                          VALE_K   = 'N1',),
           PRECISION =  1.E-10,
           NOM_PARA  = 'PRE1',
           VALE      = 1.991092945817E+06,
           REFERENCE = 'NON_REGRESSION',
           VERSION   = '11.0.25');

#########
# Tests sur DY a l'ordre 74 (t=1 s)
#########

TEST_TABLE(TABLE     = EXDEP1,
           FILTRE    = _F(NOM_PARA = 'NOEUD',
                          VALE_K   = 'N4',),
           NOM_PARA  = 'DY',
           PRECISION =  1.E-10,
           VALE      =  1.8807606329922E-03,
           REFERENCE = 'NON_REGRESSION',
           VERSION   = '11.0.25');
TEST_TABLE(TABLE     = EXDEP1,
           FILTRE    = _F(NOM_PARA = 'NOEUD',
                          VALE_K   = 'N23',),
           PRECISION =  1.E-10,
           NOM_PARA  = 'DY',
           VALE      =  1.139326750168E-03,
           REFERENCE = 'NON_REGRESSION',
           VERSION   = '11.0.25');
TEST_TABLE(TABLE     = EXDEP1,
           FILTRE    = _F(NOM_PARA = 'NOEUD',
                          VALE_K   = 'N27',),
           PRECISION =  1.E-10,
           NOM_PARA  = 'DY',
           VALE      = 6.19182033214E-04,
           REFERENCE = 'NON_REGRESSION',
           VERSION   = '11.0.25');
TEST_TABLE(TABLE     = EXDEP1,
           FILTRE    = _F(NOM_PARA = 'NOEUD',
                          VALE_K   = 'N31',),
           NOM_PARA  = 'DY',
           PRECISION =  1.E-10,
           VALE      = 2.6539252530741E-04,
           REFERENCE = 'NON_REGRESSION',
           VERSION   = '11.0.25');

#########
# Tests sur DY  a l'ordre 149 (t=10 s)
#########

TEST_TABLE(TABLE     = EXDEP2,
           FILTRE    = _F(NOM_PARA = 'NOEUD',
                          VALE_K   = 'N4',),
           PRECISION =  1.E-10,
           NOM_PARA  = 'DY',
           VALE      = 3.4385071565836E-03,
           REFERENCE = 'NON_REGRESSION',
           VERSION   = '11.0.25');
TEST_TABLE(TABLE     = EXDEP2,
           FILTRE    = _F(NOM_PARA = 'NOEUD',
                          VALE_K   = 'N23',),
           PRECISION =  1.E-10,
           NOM_PARA  = 'DY',
           VALE      =  2.5771817886894E-03,
           REFERENCE = 'NON_REGRESSION',
           VERSION   = '11.0.25');
TEST_TABLE(TABLE     = EXDEP2,
           FILTRE    = _F(NOM_PARA = 'NOEUD',
                          VALE_K   = 'N27',),
           PRECISION =  1.E-10,
           NOM_PARA  = 'DY',
           VALE      = 1.7172304114012E-03,
           REFERENCE = 'NON_REGRESSION',
           VERSION   = '11.0.25');
TEST_TABLE(TABLE     = EXDEP2,
           FILTRE    = _F(NOM_PARA = 'NOEUD',
                          VALE_K   = 'N31',),
           PRECISION =  1.E-10,
           NOM_PARA  = 'DY',
           VALE      = 8.5833064233171E-04,
           REFERENCE = 'NON_REGRESSION',
           VERSION   = '11.0.25');

EXSIG1=POST_RELEVE_T(ACTION=_F(OPERATION='EXTRACTION',
                               INTITULE='MAIL',
                               RESULTAT=RESU1,
                               NOM_CHAM='SIEF_NOEU',
                               NOM_CMP='SIYY',
                               NUME_ORDRE=74,
                               GROUP_NO='DROITE',),);
EXSIG2=POST_RELEVE_T(ACTION=_F(OPERATION='EXTRACTION',
                               INTITULE='MAIL',
                               RESULTAT=RESU1,
                               NOM_CHAM='SIEF_NOEU',
                               NOM_CMP='SIYY',
                               NUME_ORDRE=149,
                               GROUP_NO='DROITE',),);

IMPR_TABLE(TABLE=EXSIG1,
           FORMAT='TABLEAU',
           UNITE=8,
           NOM_PARA=('INST','NOEUD','COOR_X','COOR_Y','SIYY',),);

IMPR_TABLE(TABLE=EXSIG2,
           FORMAT='TABLEAU',
           UNITE=8,
           NOM_PARA=('INST','NOEUD','COOR_X','COOR_Y','SIYY',),);

#########
# Tests sur SIYY  a l'ordre 74 (t=1 s)
#########

TEST_TABLE(TABLE     = EXSIG1,
           FILTRE    = _F(NOM_PARA = 'NOEUD',
                          VALE_K   = 'N4',),
           PRECISION =  1.E-10,
           NOM_PARA  = 'SIYY',
           VALE      = 2.00000E+06,
           REFERENCE = 'NON_REGRESSION',
           VERSION   = '11.0.25');
TEST_TABLE(TABLE     = EXSIG1,
           FILTRE    = _F(NOM_PARA = 'NOEUD',
                          VALE_K   = 'N23',),
           PRECISION =  1.E-10,
           NOM_PARA  = 'SIYY',
           VALE      =  1.4477057505633E+06,
           REFERENCE = 'NON_REGRESSION',
           VERSION   = '11.0.25');
TEST_TABLE(TABLE     = EXSIG1,
           FILTRE    = _F(NOM_PARA = 'NOEUD',
                          VALE_K   = 'N27',),
           PRECISION =  1.E-10,
           NOM_PARA  = 'SIYY',
           VALE      = 9.8618261792096E+05,
           REFERENCE = 'NON_REGRESSION',
           VERSION   = '11.0.25');
TEST_TABLE(TABLE     = EXSIG1,
           FILTRE    = _F(NOM_PARA = 'NOEUD',
                          VALE_K   = 'N31',),
           PRECISION =  1.E-10,
           NOM_PARA  = 'SIYY',
           VALE      = 6.8416253970115E+05,
           REFERENCE = 'NON_REGRESSION',
           VERSION   = '11.0.25');
TEST_TABLE(TABLE     = EXSIG1,
           FILTRE    = _F(NOM_PARA = 'NOEUD',
                          VALE_K   = 'N1',),
           PRECISION =  1.E-10,
           NOM_PARA  = 'SIYY',
           VALE      = 5.7968660741362E+05,
           REFERENCE = 'NON_REGRESSION',
           VERSION   = '11.0.25');

#########
# Tests sur SIYY  a l'ordre 149 (t=10 s)
#########

TEST_TABLE(TABLE     = EXSIG2,
           FILTRE    = _F(NOM_PARA = 'NOEUD',
                          VALE_K   = 'N4',),
           PRECISION =  1.E-10,
           NOM_PARA  = 'SIYY',
           VALE      = 2.00000E+06,
           REFERENCE = 'NON_REGRESSION',
           VERSION   = '11.0.25');
TEST_TABLE(TABLE     = EXSIG2,
           FILTRE    = _F(NOM_PARA = 'NOEUD',
                          VALE_K   = 'N23',),
           PRECISION =  1.E-10,
           NOM_PARA  = 'SIYY',
           VALE      =  1.9965914222579E+06,
           REFERENCE = 'NON_REGRESSION',
           VERSION   = '11.0.25');
TEST_TABLE(TABLE     = EXSIG2,
           FILTRE    = _F(NOM_PARA = 'NOEUD',
                          VALE_K   = 'N27',),
           PRECISION =  1.E-10,
           NOM_PARA  = 'SIYY',
           VALE      = 1.9937017653319E+06,
           REFERENCE = 'NON_REGRESSION',
           VERSION   = '11.0.25');
TEST_TABLE(TABLE     = EXSIG2,
           FILTRE    = _F(NOM_PARA = 'NOEUD',
                          VALE_K   = 'N31',),
           PRECISION =  1.E-10,
           NOM_PARA  = 'SIYY',
           VALE      = 1.9917709562082E+06,
           REFERENCE = 'NON_REGRESSION',
           VERSION   = '11.0.25');
TEST_TABLE(TABLE     = EXSIG2,
           FILTRE    = _F(NOM_PARA = 'NOEUD',
                          VALE_K   = 'N1',),
           PRECISION =  1.E-10,
           NOM_PARA  = 'SIYY',
           VALE      = 1.991092945817E+06,
           REFERENCE = 'NON_REGRESSION',
           VERSION   = '11.0.25');

FIN();
