 TITRE
CODE_ASTER - 11.00.27 - VERSION DE DEVELOPPEMENT          - FRONTAL1         - L
 FINSF
 %
 COOR_3D
 N1        -0.50000000000000E+00  -0.50000000000000E+00  -0.50000000000000E+00
 N2        0.50000000000000E+00  -0.50000000000000E+00  -0.50000000000000E+00
 N3        0.50000000000000E+00  0.50000000000000E+00  -0.50000000000000E+00
 N4        -0.50000000000000E+00  0.50000000000000E+00  -0.50000000000000E+00
 N5        -0.50000000000000E+00  -0.50000000000000E+00  0.50000000000000E+00
 N6        0.50000000000000E+00  -0.50000000000000E+00  0.50000000000000E+00
 N7        0.50000000000000E+00  0.50000000000000E+00  0.50000000000000E+00
 N8        -0.50000000000000E+00  0.50000000000000E+00  0.50000000000000E+00
 N9        0.00000000000000E+00  0.00000000000000E+00  0.00000000000000E+00
 FINSF
 %
 QUAD4   
 M9        N1       N2       N3       N4     
 M10       N5       N6       N7       N8          
 FINSF
 %
 PYRAM5   
 M11       N1       N2       N3       N4      N9
 M12       N2       N3       N7       N6      N9
 M13       N3       N4       N8       N7      N9
 M14       N4       N1       N5       N8      N9
 M15       N1       N2       N6       N5      N9
 M16       N8       N7       N6       N5      N9
 FINSF
 %
 GROUP_MA
 BAS                    
 M9      
 FINSF
 %
 GROUP_MA
 HAUT                    
 M10
 FINSF
 %
 FIN
