# MODIF  DATE 16/04/2012   AUTEUR ABBAS M.ABBAS 
# TITRE ESSAI TRIAXIAL NON DRAINE CYCLIQUE SUR SABLE D'HOSTUN - LOI HUJEUX, SIMU_POINT_MAT
# wtnv134b.para = tps_job 60 mem_job 391Mo ncpus 1 liste_test S
#            CONFIGURATION MANAGEMENT OF EDF VERSION
# ======================================================================
# COPYRIGHT (C) 1991 - 2012  EDF R&D                  WWW.CODE-ASTER.ORG
# THIS PROGRAM IS FREE SOFTWARE; YOU CAN REDISTRIBUTE IT AND/OR MODIFY
# IT UNDER THE TERMS OF THE GNU GENERAL PUBLIC LICENSE AS PUBLISHED BY
# THE FREE SOFTWARE FOUNDATION; EITHER VERSION 2 OF THE LICENSE, OR
# (AT YOUR OPTION) ANY LATER VERSION.
#
# THIS PROGRAM IS DISTRIBUTED IN THE HOPE THAT IT WILL BE USEFUL, BUT
# WITHOUT ANY WARRANTY; WITHOUT EVEN THE IMPLIED WARRANTY OF
# MERCHANTABILITY OR FITNESS FOR A PARTICULAR PURPOSE. SEE THE GNU
# GENERAL PUBLIC LICENSE FOR MORE DETAILS.
#
# YOU SHOULD HAVE RECEIVED A COPY OF THE GNU GENERAL PUBLIC LICENSE
# ALONG WITH THIS PROGRAM; IF NOT, WRITE TO EDF R&D CODE_ASTER,
#    1 AVENUE DU GENERAL DE GAULLE, 92141 CLAMART CEDEX, FRANCE.
# ======================================================================


DEBUT(CODE=_F(NOM='WTNV134B',NIV_PUB_WEB='INTERNET',VISU_EFICAS='NON'),DEBUG=_F(SDVERI='OUI'))


# proprietes hydrauliques
poro = 0.425 ;  # porosite
rhol = 1000. ;  # masse volumique du fluide
kin  = 1.E-8 ;  # permeabilite intrinsinque
k_w  = 1.E10 ;  # module de compressibilite de l'eau
#UNSURK = 1/k_w ;
UNSURK = 1.E-12 ;
visco  = 0.001   ;
dvisco = 0.0     ;
k_int    = DEFI_CONSTANTE(VALE=kin)   ;
viscoliq = DEFI_CONSTANTE(VALE=visco) ;
dviscoli = DEFI_CONSTANTE(VALE=dvisco);


# modules mecaniques [Pa]
K = 516.2E6 ;
G = 238.2E6 ;
# =>
YOUNG   = 9.*K*G /(3.*K+G)        ;
POISSON = (3.*K-2.*G) /(6.*K+2.*G);

degr  = pi /180.
M     = sin(degr*31.)
pcr   = 361.E5*exp(1.) /2.
lambd = 0.1 /(1.-poro)
kapa  = lambd /2.

print 'young=',YOUNG,' /// nu=',POISSON

# pression de preconsolidation [en Pa]
PCR = -1.E6 ;

PCO =  3.E4 ;

# cohesion
r_ela =0.005
b     =0.2
ptrac =1000
p0    =-3.e4
pc    =-1.e6
c = M*r_ela*b*ptrac*(1+log(p0/pc)-1/b-ptrac/p0)
print 'cohesion =',c

#*******************************************************************
#    INCREMENTS DE TEMPS
#*******************************************************************

TEMPS1o=DEFI_LIST_REEL(DEBUT=0.,
                      INTERVALLE=(_F(JUSQU_A = 10., NOMBRE = 10),
                                  _F(JUSQU_A = 20., NOMBRE = 10),
                                  _F(JUSQU_A = 30., NOMBRE = 10),
                                  _F(JUSQU_A = 40., NOMBRE = 10),
                                  _F(JUSQU_A = 50., NOMBRE = 10),
                                  _F(JUSQU_A = 55., NOMBRE = 5),
                                  _F(JUSQU_A = 60., NOMBRE = 50),
                                  _F(JUSQU_A = 65., NOMBRE = 50),
                                  _F(JUSQU_A = 70., NOMBRE = 50),
                                  _F(JUSQU_A = 74., NOMBRE = 40),
                                  _F(JUSQU_A = 76., NOMBRE = 40),
                                  _F(JUSQU_A = 80., NOMBRE = 40),
                                  _F(JUSQU_A = 90., NOMBRE = 100),
                                  _F(JUSQU_A = 100.,NOMBRE = 100),
                                  _F(JUSQU_A = 110.,NOMBRE = 100),
                                  _F(JUSQU_A = 120.,NOMBRE = 50),
                                  _F(JUSQU_A = 130.,NOMBRE = 50),
                                  _F(JUSQU_A = 140.,NOMBRE = 50),
                                  _F(JUSQU_A = 150.,NOMBRE = 50),
                                  _F(JUSQU_A = 160.,NOMBRE = 50),
                                  _F(JUSQU_A = 180.,NOMBRE = 50),
# ... 5 like lines cut
                                  _F(JUSQU_A = 240.,NOMBRE = 100),));

TEMPS1=DEFI_LIST_REEL(DEBUT=0.,
                      INTERVALLE=(_F(JUSQU_A = 50., NOMBRE = 50),
                                  _F(JUSQU_A = 55., NOMBRE = 1),
                                  ));


#***********************************************************************
#    ESSAI TRIAXIAL NON DRAINE CYCLIQUE
#***********************************************************************
SOL=DEFI_MATERIAU(ELAS=_F(E=YOUNG, NU=POISSON, RHO=2500., ALPHA=0.),
                  HUJEUX=_F(N        = 0.4,
                            BETA     = 24.,
                            D        = 2.5,
                            B        = 0.2,
                            PHI      = 33.,
                            ANGDIL   = 33.,
                            PCO      = -1.E6,
                            PREF     = -1.E6,
                            AMON     = 0.008,
                            ACYC     = 0.0001,
                            CMON     = 0.2,
                            CCYC     = 0.1,
                            RD_ELA   = 0.005,
                            RI_ELA   = 0.001,
                            RHYS     = 0.05,
                            RMOB     = 0.9,
                            XM       = 1.,
                            RD_CYC   = 0.005,
                            RI_CYC   = 0.001,
                            DILA     = 1.0, ),
                   COMP_THM='LIQU_SATU',
                   THM_INIT=_F(PRE1 = 0.,
                               PORO = poro,),
                   THM_DIFFU=_F(RHO       = rhol,
                                BIOT_COEF = 1.,
                                PESA_X    = 0.,
                                PESA_Y    = 0.,
                                PESA_Z    = 0.,
                                PERM_IN   = k_int,),
                   THM_LIQU=_F(RHO         = rhol,
                               UN_SUR_K    = UNSURK,
                               VISC        = viscoliq,
                               D_VISC_TEMP = dviscoli,),);

SOL1=DEFI_MATERIAU(ELAS=_F(E=YOUNG, NU=POISSON, RHO=2500., ALPHA=0.),
                  HUJEUX=_F(N        = 0.4,
                            BETA     = 24.,
                            D        = 2.5,
                            B        = 0.2,
                            PHI      = 33.,
                            ANGDIL   = 33.,
                            PCO      = -1.E6,
                            PREF     = -1.E6,
                            AMON     = 0.008,
                            ACYC     = 0.0001,
                            CMON     = 0.2,
                            CCYC     = 0.1,
                            RD_ELA   = 0.005,
                            RI_ELA   = 0.001,
                            RHYS     = 0.05,
                            RMOB     = 0.9,
                            XM       = 1.,
                            RD_CYC   = 0.005,
                            RI_CYC   = 0.001,
                            DILA     = 1.0,
                            ),
                   COMP_THM='LIQU_SATU',
                   THM_INIT=_F(PRE1 = 0.,
                               PORO = poro,),
                   THM_DIFFU=_F(RHO       = rhol,
                                BIOT_COEF = 1.,
                                PESA_X    = 0.,
                                PESA_Y    = 0.,
                                PESA_Z    = 0.,
                                PERM_IN   = k_int,),
                   THM_LIQU=_F(RHO         = rhol,
                               UN_SUR_K    = UNSURK,
                               VISC        = viscoliq,
                               D_VISC_TEMP = dviscoli,),);

COEF1=DEFI_FONCTION(NOM_PARA    = 'INST',
                    PROL_DROITE = 'CONSTANT',
                    VALE=( 0.0, -PCO,
                          10.0, -PCO,),);

dsig = 1.5E+4;

COEF3=DEFI_FONCTION(NOM_PARA='INST',
                    PROL_DROITE='CONSTANT',
                    VALE=( 0.0, -PCO,
                          10.0, -PCO+dsig,
                          20.0, -PCO-dsig,
                          30.0, -PCO+dsig,
                          40.0, -PCO-dsig,
                          50.0, -PCO+dsig,
                          60.0, -PCO-dsig,
                          70.0, -PCO+dsig,
                          80.0, -PCO-dsig,
                          90.0, -PCO+dsig,
                          100.0, -PCO-dsig,
                          110.0, -PCO+dsig,
                          120.0, -PCO-dsig,
                          130.0, -PCO+dsig,
                          140.0, -PCO-dsig,
                          150.0, -PCO+dsig,
                          160.0, -PCO-dsig,
                          170.0, -PCO+dsig,
                          180.0, -PCO-dsig,
                          190.0, -PCO+dsig,
                          200.0, -PCO-dsig,
                          210.0, -PCO+dsig,
                          220.0, -PCO-dsig,
                          230.0, -PCO+dsig,
                          240.0, -PCO-dsig,),);

DEFLIST2 =DEFI_LIST_INST(DEFI_LIST=_F(LIST_INST =TEMPS1 ),
                        ECHEC=_F(EVENEMENT     = 'ERREUR',
                                 ACTION        = 'DECOUPE',
                                 SUBD_METHODE  = 'MANUEL',
                                 SUBD_PAS      = 10,
                                 SUBD_NIVEAU   = 10,),);


DEFLIST=DEFI_LIST_INST(DEFI_LIST=_F(LIST_INST=TEMPS1,METHODE='AUTO', PAS_MINI=0.000001,),
                        ECHEC=_F(EVENEMENT     = 'ERREUR',
                                 ACTION        = 'DECOUPE',
                                 SUBD_METHODE  = 'MANUEL',
                                 SUBD_PAS=10),
                        );


b=1.
KW=1.E12
coef= b*KW/3./K

coef=KW

TAB_SIG=SIMU_POINT_MAT(INFO=1,
                  COMP_INCR=_F(RELATION='HUJEUX',
                               ITER_INTE_MAXI=20,
                               RESI_INTE_RELA=1.E-8,
                               ),
                  MATER=SOL1,
                  INCREMENT=_F(LIST_INST=DEFLIST,
                               INST_INIT=0.,
                               INST_FIN =55.,),
                  NEWTON=_F(MATRICE='TANGENTE',REAC_ITER=1,PREDICTION='ELASTIQUE'),
                  CONVERGENCE=_F(RESI_GLOB_RELA = 1.E-6,
                                 ITER_GLOB_MAXI = 20,),
                  ARCHIVAGE=_F(LIST_INST=TEMPS1,),

                  MATR_C1=(
                  _F(NUME_LIGNE=1,NUME_COLONNE=1,VALE=1.),
                  _F(NUME_LIGNE=2,NUME_COLONNE=2,VALE=1.),
                  _F(NUME_LIGNE=3,NUME_COLONNE=3,VALE=1.),
                  ),
                  VECT_IMPO=(
                  _F(NUME_LIGNE=1,VALE=COEF1),
                  _F(NUME_LIGNE=2,VALE=COEF1),
                  _F(NUME_LIGNE=3,VALE=COEF3),
                  ),
                  MATR_C2=(
                  _F(NUME_LIGNE=1,NUME_COLONNE=1,VALE=coef),
                  _F(NUME_LIGNE=1,NUME_COLONNE=2,VALE=coef),
                  _F(NUME_LIGNE=1,NUME_COLONNE=3,VALE=coef),
                  _F(NUME_LIGNE=2,NUME_COLONNE=1,VALE=coef),
                  _F(NUME_LIGNE=2,NUME_COLONNE=2,VALE=coef),
                  _F(NUME_LIGNE=2,NUME_COLONNE=3,VALE=coef),
                  _F(NUME_LIGNE=3,NUME_COLONNE=1,VALE=coef),
                  _F(NUME_LIGNE=3,NUME_COLONNE=2,VALE=coef),
                  _F(NUME_LIGNE=3,NUME_COLONNE=3,VALE=coef),
                  ),
                  SIGM_INIT=_F(SIXX=-PCO,
                               SIYY=-PCO,
                               SIZZ=-PCO,),
                  EPSI_INIT=_F(EPXX=0,
                               EPYY=0,
                               EPZZ=0,
                               EPXY=0,
                               EPXZ=0,
                               EPYZ=0,),);


#-------------------------
#    TEST_RESU AU POINT C : comparaison avec modelisation A
#-------------------------

# TEST SUR LA PRESSION ISOTROPE EFFECTIVE PAR RAPPORT AUX REFERENCES LAWYER
TEST_TABLE(TABLE=TAB_SIG,
           NOM_PARA='TRACE',
           VALE=-80193.7,
           PRECISION=0.01,
           CRITERE='RELATIF',
           REFERENCE='SOURCE_EXTERNE',
           FILTRE=_F(NOM_PARA='INST',
                     VALE=10.00,
                     PRECISION=.00009,
                     CRITERE='ABSOLU'));

TEST_TABLE(TABLE=TAB_SIG,
           NOM_PARA='TRACE',
           VALE=-74078.1,
           PRECISION=0.01,
           CRITERE='RELATIF',
           REFERENCE='SOURCE_EXTERNE',
           FILTRE=_F(NOM_PARA='INST',
                     VALE=20.00,
                     PRECISION=.00009,
                     CRITERE='ABSOLU'));

TEST_TABLE(TABLE=TAB_SIG,
           NOM_PARA='TRACE',
           VALE=-66250.1,
           PRECISION=0.01,
           CRITERE='RELATIF',
           REFERENCE='SOURCE_EXTERNE',
           FILTRE=_F(NOM_PARA='INST',
                     VALE=30.00,
                     PRECISION=.00009,
                     CRITERE='ABSOLU'));

TEST_TABLE(TABLE=TAB_SIG,
           NOM_PARA='TRACE',
           VALE=-52999,
           PRECISION=0.02,
           CRITERE='RELATIF',
           REFERENCE='SOURCE_EXTERNE',
           FILTRE=_F(NOM_PARA='INST',
                     VALE=40.00,
                     PRECISION=.00009,
                     CRITERE='ABSOLU'));

TEST_TABLE(TABLE=TAB_SIG,
           NOM_PARA='TRACE',
           VALE=-45671.9,
           PRECISION=0.02,
           CRITERE='RELATIF',
           REFERENCE='SOURCE_EXTERNE',
           FILTRE=_F(NOM_PARA='INST',
                     VALE=50.00,
                     PRECISION=.00009,
                     CRITERE='ABSOLU'));

# TEST DU COEF D ECROUISSAGE ISOROPE CYCLIQUE PAR RAPPORT AUX REFERENCES LAWYER
TEST_TABLE(TABLE=TAB_SIG,
           NOM_PARA='V8',
           VALE=.00138,
           PRECISION=0.02,
           CRITERE='RELATIF',
           REFERENCE='SOURCE_EXTERNE',
           FILTRE=_F(NOM_PARA='INST',
                     VALE=15.00,
                     PRECISION=.00009,
                     CRITERE='ABSOLU'));

TEST_TABLE(TABLE=TAB_SIG,
           NOM_PARA='V8',
           VALE=.00217,
           PRECISION=0.02,
           CRITERE='RELATIF',
           REFERENCE='SOURCE_EXTERNE',
           FILTRE=_F(NOM_PARA='INST',
                     VALE=25.00,
                     PRECISION=.00009,
                     CRITERE='ABSOLU'));

TEST_TABLE(TABLE=TAB_SIG,
           NOM_PARA='V8',
           VALE=.00337,
           PRECISION=0.03,
           CRITERE='RELATIF',
           REFERENCE='SOURCE_EXTERNE',
           FILTRE=_F(NOM_PARA='INST',
                     VALE=35.00,
                     PRECISION=.00009,
                     CRITERE='ABSOLU'));

TEST_TABLE(TABLE=TAB_SIG,
           NOM_PARA='V8',
           VALE=.00510,
           PRECISION=0.04,
           CRITERE='RELATIF',
           REFERENCE='SOURCE_EXTERNE',
           FILTRE=_F(NOM_PARA='INST',
                     VALE=45.00,
                     PRECISION=.00009,
                     CRITERE='ABSOLU'));

TEST_TABLE(TABLE=TAB_SIG,
           NOM_PARA='V8',
           VALE=.00189,
           PRECISION=0.07,
           CRITERE='RELATIF',
           REFERENCE='SOURCE_EXTERNE',
           FILTRE=_F(NOM_PARA='INST',
                     VALE=55.00,
                     PRECISION=.00009,
                     CRITERE='ABSOLU'));


# TEST DU COEF D ECROUISSAGE DEVIATOIRE CYCLIQUE PAR RAPPORT AUX REFERENCES LAWYER
TEST_TABLE(TABLE=TAB_SIG,
           NOM_PARA='V1',
           VALE=.326,
           PRECISION=0.01,
           CRITERE='RELATIF',
           REFERENCE='SOURCE_EXTERNE',
           FILTRE=_F(NOM_PARA='INST',
                     VALE=20.00,
                     PRECISION=.00009,
                     CRITERE='ABSOLU'));

TEST_TABLE(TABLE=TAB_SIG,
           NOM_PARA='V1',
           VALE=.394,
           PRECISION=0.01,
           CRITERE='RELATIF',
           REFERENCE='SOURCE_EXTERNE',
           FILTRE=_F(NOM_PARA='INST',
                     VALE=30.00,
                     PRECISION=.00009,
                     CRITERE='ABSOLU'));

TEST_TABLE(TABLE=TAB_SIG,
           NOM_PARA='V1',
           VALE=.394,
           PRECISION=0.01,
           CRITERE='RELATIF',
           REFERENCE='SOURCE_EXTERNE',
           FILTRE=_F(NOM_PARA='INST',
                     VALE=40.00,
                     PRECISION=.00009,
                     CRITERE='ABSOLU'));

TEST_TABLE(TABLE=TAB_SIG,
           NOM_PARA='V1',
           VALE=.578,
           PRECISION=0.02,
           CRITERE='RELATIF',
           REFERENCE='SOURCE_EXTERNE',
           FILTRE=_F(NOM_PARA='INST',
                     VALE=50.00,
                     PRECISION=.00009,
                     CRITERE='ABSOLU'));


# TEST SUR LA DEFORMATION VOLUMIQUE PLASTIQUE PAR RAPPORT AUX REFERENCES LAWYER

TEST_TABLE(TABLE=TAB_SIG,
           NOM_PARA='V23',
           VALE=-2.63E-5,
           PRECISION=0.01,
           CRITERE='RELATIF',
           REFERENCE='SOURCE_EXTERNE',
           FILTRE=_F(NOM_PARA='INST',
                     VALE=10.00,
                     PRECISION=.00009,
                     CRITERE='ABSOLU'));

TEST_TABLE(TABLE=TAB_SIG,
           NOM_PARA='V23',
           VALE=-2.78E-5,
           PRECISION=0.02,
           CRITERE='RELATIF',
           REFERENCE='SOURCE_EXTERNE',
           FILTRE=_F(NOM_PARA='INST',
                     VALE=15.00,
                     PRECISION=.00009,
                     CRITERE='ABSOLU'));

TEST_TABLE(TABLE=TAB_SIG,
           NOM_PARA='V23',
           VALE=-4.43E-5,
           PRECISION=0.02,
           CRITERE='RELATIF',
           REFERENCE='SOURCE_EXTERNE',
           FILTRE=_F(NOM_PARA='INST',
                     VALE=25.00,
                     PRECISION=.00009,
                     CRITERE='ABSOLU'));

TEST_TABLE(TABLE=TAB_SIG,
           NOM_PARA='V23',
           VALE=-7.05E-5,
           PRECISION=0.03,
           CRITERE='RELATIF',
           REFERENCE='SOURCE_EXTERNE',
           FILTRE=_F(NOM_PARA='INST',
                     VALE=35.00,
                     PRECISION=.00009,
                     CRITERE='ABSOLU'));

TEST_TABLE(TABLE=TAB_SIG,
           NOM_PARA='V23',
           VALE=-1.11E-4,
           PRECISION=0.04,
           CRITERE='RELATIF',
           REFERENCE='SOURCE_EXTERNE',
           FILTRE=_F(NOM_PARA='INST',
                     VALE=45.00,
                     PRECISION=.00009,
                     CRITERE='ABSOLU'));

TEST_TABLE(TABLE=TAB_SIG,
           NOM_PARA='V23',
           VALE=-1.85E-4,
           PRECISION=0.04,
           CRITERE='RELATIF',
           REFERENCE='SOURCE_EXTERNE',
           FILTRE=_F(NOM_PARA='INST',
                     VALE=55.00,
                     PRECISION=.00009,
                     CRITERE='ABSOLU'));



IMPR_TABLE(TABLE=TAB_SIG,);



FIN();
