# ======================================================================
# COPYRIGHT (C) 1991 - 2016  EDF R&D                  WWW.CODE-ASTER.ORG
# THIS PROGRAM IS FREE SOFTWARE; YOU CAN REDISTRIBUTE IT AND/OR MODIFY  
# IT UNDER THE TERMS OF THE GNU GENERAL PUBLIC LICENSE AS PUBLISHED BY  
# THE FREE SOFTWARE FOUNDATION; EITHER VERSION 2 OF THE LICENSE, OR     
# (AT YOUR OPTION) ANY LATER VERSION.                                                    
#                                                                       
# THIS PROGRAM IS DISTRIBUTED IN THE HOPE THAT IT WILL BE USEFUL, BUT   
# WITHOUT ANY WARRANTY; WITHOUT EVEN THE IMPLIED WARRANTY OF            
# MERCHANTABILITY OR FITNESS FOR A PARTICULAR PURPOSE. SEE THE GNU      
# GENERAL PUBLIC LICENSE FOR MORE DETAILS.                              
#                                                                       
# YOU SHOULD HAVE RECEIVED A COPY OF THE GNU GENERAL PUBLIC LICENSE     
# ALONG WITH THIS PROGRAM; IF NOT, WRITE TO EDF R&D CODE_ASTER,         
#    1 AVENUE DU GENERAL DE GAULLE, 92141 CLAMART CEDEX, FRANCE.        
# ======================================================================

DEBUT(CODE=_F(NIV_PUB_WEB='INTERNET',),DEBUG=_F(SDVERI='OUI', JXVERI='OUI', JEVEUX='OUI'));

MAILLAG1=LIRE_MAILLAGE(FORMAT='MED',INFO=1,);

MAILLAG2=CREA_MAILLAGE(MAILLAGE  = MAILLAG1,
                       LINE_QUAD = _F(TOUT='OUI'),
                      );

MAILLAG2=DEFI_GROUP(reuse =MAILLAG2,
                    MAILLAGE=MAILLAG2,
                    CREA_GROUP_NO=(
                                   _F(GROUP_MA='SURF'),
                                   _F(GROUP_MA='HAUT'),
                                   _F(GROUP_MA='BAS'),
                                   _F(GROUP_MA='GAUCHE'),
                                   _F(GROUP_MA='DROITE'),
                                  ),
                    INFO=2,
                   );

MODELEIN=AFFE_MODELE(MAILLAGE=MAILLAG2,
                     AFFE=(_F(GROUP_MA='SURF',
                              PHENOMENE='MECANIQUE',
                              MODELISATION='D_PLAN_HM',),),);

LN1=FORMULE(NOM_PARA=('X','Y'),VALE='Y-0.2-0.5*X+0.42');

FISS1=DEFI_FISS_XFEM(MAILLAGE=MAILLAG2,
                    TYPE_DISCONTINUITE='INTERFACE',
                    DEFI_FISS=_F(FONC_LN=LN1,),
                    INFO=1,);

LN2=FORMULE(NOM_PARA=('X','Y'),VALE='Y+0.5*X+1.05');

FISS2=DEFI_FISS_XFEM(MAILLAGE=MAILLAG2,
                    TYPE_DISCONTINUITE='INTERFACE',
                    DEFI_FISS=_F(FONC_LN=LN2,),
                    JONCTION=_F(FISSURE=(FISS1),POINT=(2.0,-5.0)),
                    INFO=1,);

MODELEK=MODI_MODELE_XFEM(MODELE_IN=MODELEIN,
                         FISSURE=(FISS1,FISS2),
                         DECOUPE_FACETTE='SOUS_ELEMENTS',
                         CONTACT='MORTAR',
                         INFO=1,);

CTXFEM = DEFI_CONTACT(MODELE=MODELEK,
                      FORMULATION='XFEM',
                      ITER_CONT_MAXI=4,
                      ZONE=(
                            _F(INTEGRATION='GAUSS',
                               ORDRE_INT=3,
                               ALGO_CONT='CZM',
                               FISS_MAIT = FISS1,
                               ALGO_LAGR='VERSION2',
                               RELATION='CZM_LIN_MIX'
                              ),
                            _F(INTEGRATION='GAUSS',
                               ORDRE_INT=3,
                               ALGO_CONT='CZM',
                               FISS_MAIT = FISS2,
                               ALGO_LAGR='VERSION2',
                               RELATION='CZM_LIN_MIX'
                              ),
                            ),
                      INFO=2,
                     );

ZERO = DEFI_CONSTANTE(VALE = 0.0,);

UNM3 = DEFI_CONSTANTE(VALE = 1.0E-3,);

KINT = DEFI_CONSTANTE(VALE = 1.0E-15,);

SOL  = DEFI_MATERIAU(ELAS      = _F(E           = 5800E6,
                                    NU          = 0.25,
                                    RHO         = 2762.0,
                                    ALPHA       = 0.0,),
                     COMP_THM  =   'LIQU_SATU',
                     THM_INIT  = _F(PRE1        = 0.0,
                                    PORO        = 0.1,),
                     THM_DIFFU = _F(RHO         = 2500,
                                    BIOT_COEF   = 0.8,
                                    PESA_X      = 0.0,
                                    PESA_Y      = 0.0,
                                    PESA_Z      = 0.0,
                                    PERM_IN     = KINT,),
                     THM_LIQU  = _F(RHO         = 1000,
                                    UN_SUR_K    = 5.E-10,
                                    VISC        = UNM3,
                                    D_VISC_TEMP = ZERO,),
                     RUPT_FRAG = _F(GC=0.5E2,
                                    SIGM_C=110000,
                                    PENA_LAGR=2,
                                    ),

                    );

CHAMPMAT=AFFE_MATERIAU(MAILLAGE=MAILLAG2,
                       MODELE=MODELEK,
                       AFFE=_F(TOUT=('OUI',),
                                MATER=SOL,
                                ),);

CH1=AFFE_CHAR_MECA(MODELE=MODELEK,
                   DDL_IMPO=(
                             _F(GROUP_MA=('BAS'),DY=0.0001),
                             _F(GROUP_MA=('DROITE'),DX=0.0,H1X=0.0,),
                             _F(NOEUD=('NS15'),DY=0.00001666),
                            ),
                   INFO=1,);

CHC=AFFE_CHAR_MECA(MODELE=MODELEK,
                   DDL_IMPO=(
                             _F(GROUP_MA=('HAUT'),DY=-0.0001),
                            ),
                   INFO=1,);

def flux(x,y) :
   if x> 4.9:    return 0.04
   if x< 4.9:    return 0

FLUX = FORMULE(VALE='flux(X,Y)',
                  NOM_PARA=('X','Y'),);

HYDR=AFFE_CHAR_MECA_F(MODELE=MODELEK,
                    FLUX_THM_REP=_F(GROUP_MA='SURF',FLUN_FRAC=FLUX,),
                   );

#----------------------------------------------
#                   RESOLUTION
#----------------------------------------------

L_INS=DEFI_LIST_REEL(DEBUT=0.0,
                     INTERVALLE=(
                                 _F(JUSQU_A=1.0,NOMBRE=1,),
                                 _F(JUSQU_A=10.0,NOMBRE=9,),
                                 _F(JUSQU_A=50.0,NOMBRE=20,),
                                )
                    );

L_BINS =DEFI_LIST_INST(DEFI_LIST=_F(LIST_INST = L_INS),
                        ECHEC=_F(ACTION='DECOUPE',
                                 SUBD_METHODE='MANUEL',
                                 SUBD_PAS=5,
                                 SUBD_NIVEAU=10,
                                 SUBD_PAS_MINI = 1e-6),)

UTOT1=STAT_NON_LINE(MODELE      = MODELEK,
                    CHAM_MATER  = CHAMPMAT,
                    EXCIT       = (
                                   _F(CHARGE = CHC,),
                                   _F(CHARGE = CH1,),
#                                   _F(CHARGE = HYDR,),
                                  ),
                    CONTACT =  CTXFEM,
                    COMPORTEMENT   = _F(RELATION       = 'KIT_HM', PARM_THETA=0.56999999999999995,
                                        RELATION_KIT   = ('ELAS', 
                                                          'LIQU_SATU',
                                                          'HYDR_UTIL',),
                                        RESI_INTE_RELA = 1.E-6,
                                        ITER_INTE_PAS  = -10,
                                        ITER_INTE_MAXI = 100,
                                       ),
                    NEWTON      = _F(MATRICE   = 'TANGENTE',
                                     REAC_ITER = 1,
                                    ),
                    CONVERGENCE = _F(RESI_GLOB_RELA = 1.E-6,
                                     ITER_GLOB_MAXI = 50,
                                    ),
                    SOLVEUR     = _F(METHODE='MUMPS',
                                     NPREC=-1),
                    INCREMENT   = _F(LIST_INST = L_BINS, INST_FIN=1.0),
                    INFO=1,
                   )

UTOT1=STAT_NON_LINE(reuse=UTOT1,
                    ETAT_INIT  = _F(EVOL_NOLI = UTOT1),
                    MODELE      = MODELEK,
                    CHAM_MATER  = CHAMPMAT,
                    EXCIT       = (
                                   _F(CHARGE = CH1,),
                                   _F(CHARGE = CHC,),
                                   _F(CHARGE = HYDR,),
                                  ),
                    CONTACT =  CTXFEM,
                    COMPORTEMENT   = _F(RELATION       = 'KIT_HM', PARM_THETA=0.56999999999999995,
                                        RELATION_KIT   = ('ELAS', 
                                                          'LIQU_SATU',
                                                          'HYDR_UTIL',),
                                        RESI_INTE_RELA = 1.E-6,
                                        ITER_INTE_PAS  = -10,
                                        ITER_INTE_MAXI = 100,
                                       ),
                    NEWTON      = _F(MATRICE   = 'TANGENTE',
                                     REAC_ITER = 1,
                                    ),
                    CONVERGENCE = _F(RESI_GLOB_RELA = 1.E-6,
                                     ITER_GLOB_MAXI = 50,
                                    ),
                    SOLVEUR     = _F(METHODE='MUMPS',
                                     NPREC=-1),
                    INCREMENT   = _F(LIST_INST = L_BINS,),
                    INFO=1,
                   )

#-----------------------------------------------------------
#             POST-TRAITEMENT POUR LA VISUALISATION
#-----------------------------------------------------------

MA_XFEM=POST_MAIL_XFEM(MODELE=MODELEK);

MOD_VISU=AFFE_MODELE(MAILLAGE=MA_XFEM,
                     AFFE=_F(TOUT='OUI',
                     PHENOMENE='MECANIQUE',
                     MODELISATION='D_PLAN_HM',),)

RES_TEST=POST_CHAM_XFEM(MODELE_VISU   = MOD_VISU,
                        RESULTAT      = UTOT1,)

IMPR_RESU(UNITE=80,FORMAT='MED',RESU=_F(RESULTAT=RES_TEST, NOM_CHAM='DEPL', NOM_CMP=('DX','DY','DX','PRE_FLU','PRE1','LAG_FLI','LAG_FLS','LAGS_C')));
#IMPR_RESU(FORMAT='MED',UNITE=80,RESU=_F(RESULTAT=RES_TEST,));

#----------------------------------------------
#                   POST RELEVE
#----------------------------------------------

DEP1=POST_RELEVE_T(ACTION=_F(INTITULE='DEPLE',
                             NOEUD=('NMCS',),
                             RESULTAT=RES_TEST,
                             NOM_CHAM='DEPL',
                             NUME_ORDRE=30,
                             TOUT_CMP='OUI',
                             OPERATION='EXTRACTION',
                            ),
                  );

TEST_TABLE(CRITERE='RELATIF',
           REFERENCE='AUTRE_ASTER',
           PRECISION=1.0E-6,
           VALE_CALC=646077.785396,
           VALE_REFE=646077.785396,
           NOM_PARA='PRE_FLU',
           TABLE=DEP1,)

TEST_TABLE(CRITERE='RELATIF',
           REFERENCE='AUTRE_ASTER',
           PRECISION=1.0E-3,
           VALE_CALC=-3.33438657098E-06,
           VALE_REFE=-3.33438657098E-06,
           NOM_PARA='DY',
           TABLE=DEP1,)

DEP2=POST_RELEVE_T(ACTION=_F(INTITULE='DEPLE',
                             NOEUD=('NPCG',),
                             RESULTAT=RES_TEST,
                             NOM_CHAM='DEPL',
                             NUME_ORDRE=30,
                             TOUT_CMP='OUI',
                             OPERATION='EXTRACTION',
                            ),
                  );

TEST_TABLE(CRITERE='RELATIF',
           REFERENCE='AUTRE_ASTER',
           PRECISION=1.0E-3,
           VALE_CALC=0.000112056089219,
           VALE_REFE=0.000112056089219,
           NOM_PARA='DY',
           TABLE=DEP2,)

DEP3=POST_RELEVE_T(ACTION=_F(INTITULE='DEPLE',
                             NOEUD=('NM1H',),
                             RESULTAT=RES_TEST,
                             NOM_CHAM='DEPL',
                             NUME_ORDRE=30,
                             TOUT_CMP='OUI',
                             OPERATION='EXTRACTION',
                            ),
                  );

TEST_TABLE(CRITERE='RELATIF',
           REFERENCE='AUTRE_ASTER',
           PRECISION=1.0E-6,
           VALE_CALC=579537.996585,
           VALE_REFE=579537.996585,
           NOM_PARA='PRE_FLU',
           TABLE=DEP3,)

TEST_TABLE(CRITERE='RELATIF',
           REFERENCE='AUTRE_ASTER',
           PRECISION=1.0E-3,
           VALE_CALC=-6.26294300181E-05,
           VALE_REFE=-6.26294300181E-05,
           NOM_PARA='DY',
           TABLE=DEP3,)

DEP4=POST_RELEVE_T(ACTION=_F(INTITULE='DEPLE',
                             NOEUD=('NP1N',),
                             RESULTAT=RES_TEST,
                             NOM_CHAM='DEPL',
                             NUME_ORDRE=30,
                             TOUT_CMP='OUI',
                             OPERATION='EXTRACTION',
                            ),
                  );

TEST_TABLE(CRITERE='RELATIF',
           REFERENCE='AUTRE_ASTER',
           PRECISION=1.0E-3,
           VALE_CALC=7.36284608563E-05,
           VALE_REFE=7.36284608563E-05,
           NOM_PARA='DY',
           TABLE=DEP4,)

DEP5=POST_RELEVE_T(ACTION=_F(INTITULE='DEPLE',
                             NOEUD=('NM5V',),
                             RESULTAT=RES_TEST,
                             NOM_CHAM='DEPL',
                             NUME_ORDRE=30,
                             TOUT_CMP='OUI',
                             OPERATION='EXTRACTION',
                            ),
                  );

TEST_TABLE(CRITERE='RELATIF',
           REFERENCE='AUTRE_ASTER',
           PRECISION=1.0E-6,
           VALE_CALC=343080.242818,
           VALE_REFE=343080.242818,
           NOM_PARA='PRE_FLU',
           TABLE=DEP5,)

TEST_TABLE(CRITERE='RELATIF',
           REFERENCE='AUTRE_ASTER',
           PRECISION=1.0E-3,
           VALE_CALC=8.07709206789E-07,
           VALE_REFE=8.07709206789E-07,
           NOM_PARA='DY',
           TABLE=DEP5,)

DEP6=POST_RELEVE_T(ACTION=_F(INTITULE='DEPLE',
                             NOEUD=('NP5A',),
                             RESULTAT=RES_TEST,
                             NOM_CHAM='DEPL',
                             NUME_ORDRE=30,
                             TOUT_CMP='OUI',
                             OPERATION='EXTRACTION',
                            ),
                  );

TEST_TABLE(CRITERE='RELATIF',
           REFERENCE='AUTRE_ASTER',
           PRECISION=1.0E-3,
           VALE_CALC=6.88647377488E-05,
           VALE_REFE=6.88647377488E-05,
           NOM_PARA='DY',
           TABLE=DEP6,)

FIN();
