# ======================================================================
# COPYRIGHT (C) 1991 - 2016  EDF R&D                  WWW.CODE-ASTER.ORG
# THIS PROGRAM IS FREE SOFTWARE; YOU CAN REDISTRIBUTE IT AND/OR MODIFY  
# IT UNDER THE TERMS OF THE GNU GENERAL PUBLIC LICENSE AS PUBLISHED BY  
# THE FREE SOFTWARE FOUNDATION; EITHER VERSION 2 OF THE LICENSE, OR     
# (AT YOUR OPTION) ANY LATER VERSION.                                                    
#                                                                       
# THIS PROGRAM IS DISTRIBUTED IN THE HOPE THAT IT WILL BE USEFUL, BUT   
# WITHOUT ANY WARRANTY; WITHOUT EVEN THE IMPLIED WARRANTY OF            
# MERCHANTABILITY OR FITNESS FOR A PARTICULAR PURPOSE. SEE THE GNU      
# GENERAL PUBLIC LICENSE FOR MORE DETAILS.                              
#                                                                       
# YOU SHOULD HAVE RECEIVED A COPY OF THE GNU GENERAL PUBLIC LICENSE     
# ALONG WITH THIS PROGRAM; IF NOT, WRITE TO EDF R&D CODE_ASTER,         
#    1 AVENUE DU GENERAL DE GAULLE, 92141 CLAMART CEDEX, FRANCE.        
# ======================================================================

DEBUT(CODE=_F(NIV_PUB_WEB='INTERNET'),DEBUG=_F(SDVERI='OUI'))
              
#----------------------------------------------
#                   MAILLAGE
#----------------------------------------------


MAILLAG1=LIRE_MAILLAGE(FORMAT='MED',INFO=1,);

MAILLAG2=CREA_MAILLAGE(MAILLAGE  = MAILLAG1,
                       LINE_QUAD = _F(TOUT='OUI'),
                      );

MAILLAG2=DEFI_GROUP(reuse =MAILLAG2,
                    MAILLAGE=MAILLAG2,
                    CREA_GROUP_NO=(_F(GROUP_MA='VOL'),
                                   _F(GROUP_MA='HAUT'),
                                   _F(GROUP_MA='BAS'),
                                   _F(GROUP_MA='DROITE'),
                                   _F(GROUP_MA='GAUCHE'),
                                  ),
                    INFO=2,
                   );

#----------------------------------------------
#                   MODELE ET FISSURE
#----------------------------------------------

MO=AFFE_MODELE(MAILLAGE=MAILLAG2,
               AFFE=_F(TOUT='OUI',
                       PHENOMENE='MECANIQUE',
                       MODELISATION='3D_HM',),
              );

LS_N=FORMULE(NOM_PARA=('X','Y','Z'),VALE='Z');

FISS=DEFI_FISS_XFEM(MAILLAGE=MAILLAG2,
                    TYPE_DISCONTINUITE='INTERFACE',
                    DEFI_FISS=_F(FONC_LN=LS_N,),
                    INFO=1,
                   );

MODELEK=MODI_MODELE_XFEM(MODELE_IN=MO,
                         FISSURE=FISS,
                         INFO=1,
                         CONTACT='STANDARD',
                         DECOUPE_FACETTE='SOUS_ELEMENTS',
                        );

CTXFEM = DEFI_CONTACT(MODELE=MODELEK,
                      FORMULATION='XFEM',
                      ITER_CONT_MAXI=4,
                      ZONE=(_F(INTEGRATION='GAUSS',
                               ORDRE_INT=2,
                               ALGO_CONT='CZM',
                               FISS_MAIT = FISS,
                               ALGO_LAGR='VERSION2',
                               RELATION='CZM_OUV_MIX'
                              ),
                            ),
                      INFO=2,
                     );

#----------------------------------------------
#                   MATERIAU
#----------------------------------------------
UNM3 = DEFI_CONSTANTE(VALE = 1.0E-3,);

ZERO = DEFI_CONSTANTE(VALE = 0.0,);

KINT = DEFI_CONSTANTE(VALE = 1.0E-18,);

SOL  = DEFI_MATERIAU(ELAS      = _F(E           = 5800E6,
                                    NU          = 0.2,
                                    RHO         = 2762.0,
                                    ALPHA       = 0.0,),
                     COMP_THM  =   'LIQU_SATU',
                     THM_INIT  = _F(PRE1        = 0.0,
                                    PORO        = 0.1,),
                     THM_DIFFU = _F(RHO         = 2500,
                                    BIOT_COEF   = 1.,
                                    PESA_X      = 0.0,
                                    PESA_Y      = 0.0,
                                    PESA_Z      = 0.0,
                                    PERM_IN     = KINT,),
                     THM_LIQU  = _F(RHO         = 1000,
                                    UN_SUR_K    = 5E-10,
                                    VISC        = UNM3,
                                    D_VISC_TEMP = ZERO,),
                     RUPT_FRAG = _F(GC=0.9E4,
                                    SIGM_C=500000,
                                    PENA_LAGR=10,
                                    ),

                    );

CHAMPMAT=AFFE_MATERIAU(MAILLAGE=MAILLAG2,
                       MODELE=MODELEK,
                       AFFE=_F(TOUT='OUI',
                               MATER=SOL,
                              ),
                      );

#----------------------------------------------
#                   CHARGEMENTS
#----------------------------------------------

def depn(x,y,z) :
   return 0.

DEPL_N = FORMULE(VALE='depn(X,Y,Z)',
                  NOM_PARA=('X','Y','Z'),);

def depm(x,y,z) :
   return -0.5

DEPL_M = FORMULE(VALE='depm(X,Y,Z)',
                  NOM_PARA=('X','Y','Z'),);

CH=AFFE_CHAR_MECA_F(MODELE=MODELEK,
                  DDL_IMPO=(
#                            _F(TOUT='OUI', DY=DEPL_N),
                            _F(GROUP_MA=('HAUT','BAS'), DY=DEPL_N),
                            _F(GROUP_NO='GAUCHE', DX=DEPL_N),
                            _F(GROUP_MA='BAS', DZ=DEPL_N,),
                            _F(GROUP_MA='HAUT', DZ=DEPL_N,), 
                           ),
                  INFO=1,
                 );

HYDR=AFFE_CHAR_MECA(MODELE=MODELEK,
                    DDL_IMPO=(
                             _F(GROUP_NO='BAS',PRE1=0.0,),
                             _F(GROUP_NO='HAUT',PRE1=0.0,),
                             ),
                    INFO=1,
                   );

def flux(x,y,z) :
   if x<-3.4:    return 0.05
   if x>-3.4:    return 0
   
FLUX = FORMULE(VALE='flux(X,Y,Z)',
                  NOM_PARA=('X','Y','Z'),);

FLUH=AFFE_CHAR_MECA_F(MODELE=MODELEK,
                    FLUX_THM_REP=_F(GROUP_MA='VOL',FLUN_FRAC=FLUX,),
                   );

#----------------------------------------------
#                   RESOLUTION
#----------------------------------------------

L_INS=DEFI_LIST_REEL(DEBUT=0.0,
                     INTERVALLE=_F(JUSQU_A=10.0,NOMBRE=10,),
                    );

UTOT1=STAT_NON_LINE(MODELE      = MODELEK,
                    CHAM_MATER  = CHAMPMAT,
                    EXCIT       = (_F(CHARGE = CH),
                                   _F(CHARGE = FLUH, ),
                                  ),
                    CONTACT =  CTXFEM,
                    COMPORTEMENT   = _F(RELATION       = 'KIT_HM', PARM_THETA=0.56999999999999995,
                                        RELATION_KIT   = ('ELAS',
                                                          'LIQU_SATU',
                                                          'HYDR_UTIL',),
                                        RESI_INTE_RELA = 1.E-6,
                                        ITER_INTE_PAS  = -10,
                                        ITER_INTE_MAXI = 100,
                                       ),
                    NEWTON      = _F(MATRICE   = 'TANGENTE',
                                     REAC_ITER = 1, 
                                    ),
                    SOLVEUR     = _F(METHODE='MUMPS',
                                     NPREC=-1,),
                    CONVERGENCE = _F(RESI_GLOB_RELA = 1.E-6,
                                     ITER_GLOB_MAXI = 100,    
                                    ),
                    INCREMENT   = _F(LIST_INST = L_INS,),
                   )

# -------------------------------------------------------------   
#            POST-TRAITEMENT POUR LA VISUALISATION X-FEM   
# -------------------------------------------------------------   

MA_XFEM=POST_MAIL_XFEM(MODELE = MODELEK)

MOD_VISU=AFFE_MODELE(MAILLAGE=MA_XFEM,
                     AFFE=(_F(TOUT='OUI',
                              PHENOMENE='MECANIQUE',
                              MODELISATION='3D_HM',),),
                    );  

RES_X1=POST_CHAM_XFEM(MODELE_VISU = MOD_VISU,
                      RESULTAT    = UTOT1,
                     );

IMPR_RESU(FORMAT='MED',UNITE=80,RESU=_F(RESULTAT=RES_X1,));

# -------------------------------------------------------------   
#            TEST_TABLE
# -------------------------------------------------------------   

DEP1=POST_RELEVE_T(ACTION=_F(INTITULE='DEPLE',
                             NOEUD=('NMOA','NMPE'),
                             RESULTAT=RES_X1,
                             NOM_CHAM='DEPL',
                             NUME_ORDRE=10,
                             TOUT_CMP='OUI',
                             OPERATION='EXTRACTION',
                            ),
                  );

TEST_TABLE(CRITERE='RELATIF',
           REFERENCE='AUTRE_ASTER',
           PRECISION=1.0E-6,
           VALE_CALC=820579.263788,
           VALE_REFE=820579.263788,
           TYPE_TEST='MIN',
           NOM_PARA='PRE_FLU',
           TABLE=DEP1,)

TEST_TABLE(CRITERE='RELATIF',
           REFERENCE='AUTRE_ASTER',
           PRECISION=1.0E-6,
           VALE_CALC=820640.682754,
           VALE_REFE=820640.682754,
           TYPE_TEST='MAX',
           NOM_PARA='PRE_FLU',
           TABLE=DEP1,)

TEST_TABLE(CRITERE='RELATIF',
           REFERENCE='AUTRE_ASTER',
           PRECISION=1.0E-3,
           VALE_CALC=-0.000128138836266,
           VALE_REFE=-0.000128138836266,
           TYPE_TEST='MIN',
           NOM_PARA='DZ',
           TABLE=DEP1,)

TEST_TABLE(CRITERE='RELATIF',
           REFERENCE='AUTRE_ASTER',
           PRECISION=1.0E-3,
           VALE_CALC=-0.000128135584279,
           VALE_REFE=-0.000128135584279,
           TYPE_TEST='MAX',
           NOM_PARA='DZ',
           TABLE=DEP1,)

DEP2=POST_RELEVE_T(ACTION=_F(INTITULE='DEPLE',
                             NOEUD=('NPNZ','NPPV'),
                             RESULTAT=RES_X1,
                             NOM_CHAM='DEPL',
                             NUME_ORDRE=10,
                             TOUT_CMP='OUI',
                             OPERATION='EXTRACTION',
                            ),
                  );

TEST_TABLE(CRITERE='RELATIF',
           REFERENCE='AUTRE_ASTER',
           PRECISION=1.0E-3,
           VALE_CALC=0.000128136111571,
           VALE_REFE=0.000128136111571,
           NOM_PARA='DZ',
           TYPE_TEST='MIN',
           TABLE=DEP2,)

TEST_TABLE(CRITERE='RELATIF',
           REFERENCE='AUTRE_ASTER',
           PRECISION=1.0E-3,
           VALE_CALC=0.000128136577325,
           VALE_REFE=0.000128136577325,
           NOM_PARA='DZ',
           TYPE_TEST='MAX',
           TABLE=DEP2,)

DEP3=POST_RELEVE_T(ACTION=_F(INTITULE='DEPLE',
                             NOEUD=('NMR4','NMQL'),
                             RESULTAT=RES_X1,
                             NOM_CHAM='DEPL',
                             NUME_ORDRE=10,
                             TOUT_CMP='OUI',
                             OPERATION='EXTRACTION',
                            ),
                  );

TEST_TABLE(CRITERE='RELATIF',
           REFERENCE='AUTRE_ASTER',
           PRECISION=1.0E-6,
           VALE_CALC=756896.986087,
           VALE_REFE=756896.986087,
           NOM_PARA='PRE_FLU',
           TYPE_TEST='MIN',
           TABLE=DEP3,)

TEST_TABLE(CRITERE='RELATIF',
           REFERENCE='AUTRE_ASTER',
           PRECISION=1.0E-6,
           VALE_CALC=756974.769442,
           VALE_REFE=756974.769442,
           NOM_PARA='PRE_FLU',
           TYPE_TEST='MAX',
           TABLE=DEP3,)

TEST_TABLE(CRITERE='RELATIF',
           REFERENCE='AUTRE_ASTER',
           PRECISION=1.0E-3,
           VALE_CALC=-0.000108018738878,
           VALE_REFE=-0.000108018738878,
           NOM_PARA='DZ',
           TYPE_TEST='MIN',
           TABLE=DEP3,)

TEST_TABLE(CRITERE='RELATIF',
           REFERENCE='AUTRE_ASTER',
           PRECISION=1.0E-3,
           VALE_CALC=-0.000108000419211,
           VALE_REFE=-0.000108000419211,
           NOM_PARA='DZ',
           TYPE_TEST='MAX',
           TABLE=DEP3,)

DEP4=POST_RELEVE_T(ACTION=_F(INTITULE='DEPLE',
                             NOEUD=('NPPZ','NPQT'),
                             RESULTAT=RES_X1,
                             NOM_CHAM='DEPL',
                             NUME_ORDRE=10,
                             TOUT_CMP='OUI',
                             OPERATION='EXTRACTION',
                            ),
                  );

TEST_TABLE(CRITERE='RELATIF',
           REFERENCE='AUTRE_ASTER',
           PRECISION=1.0E-3,
           VALE_CALC=0.000107995710692,
           VALE_REFE=0.000107995710692,
           NOM_PARA='DZ',
           TYPE_TEST='MIN',
           TABLE=DEP4,)

TEST_TABLE(CRITERE='RELATIF',
           REFERENCE='AUTRE_ASTER',
           PRECISION=1.0E-3,
           VALE_CALC=0.000108024865645,
           VALE_REFE=0.000108024865645,
           NOM_PARA='DZ',
           TYPE_TEST='MAX',
           TABLE=DEP4,)

FIN();
