# MODIF  DATE 15/04/2013   AUTEUR FOUCAULT A.FOUCAULT 
#
# TITRE    ESSAI TRIAXIAL NON DRAINE CYCLIQUE AVEC LA LOI
# wtnv134a.para = tps_job 250 mem_job 512Mo ncpus 1 liste_test S
#            CONFIGURATION MANAGEMENT OF EDF VERSION
# ======================================================================
# COPYRIGHT (C) 1991 - 2013  EDF R&D                  WWW.CODE-ASTER.ORG
# THIS PROGRAM IS FREE SOFTWARE; YOU CAN REDISTRIBUTE IT AND/OR MODIFY
# IT UNDER THE TERMS OF THE GNU GENERAL PUBLIC LICENSE AS PUBLISHED BY
# THE FREE SOFTWARE FOUNDATION; EITHER VERSION 2 OF THE LICENSE, OR
# (AT YOUR OPTION) ANY LATER VERSION.
#
# THIS PROGRAM IS DISTRIBUTED IN THE HOPE THAT IT WILL BE USEFUL, BUT
# WITHOUT ANY WARRANTY; WITHOUT EVEN THE IMPLIED WARRANTY OF
# MERCHANTABILITY OR FITNESS FOR A PARTICULAR PURPOSE. SEE THE GNU
# GENERAL PUBLIC LICENSE FOR MORE DETAILS.
#
# YOU SHOULD HAVE RECEIVED A COPY OF THE GNU GENERAL PUBLIC LICENSE
# ALONG WITH THIS PROGRAM; IF NOT, WRITE TO EDF R&D CODE_ASTER,
#    1 AVENUE DU GENERAL DE GAULLE, 92141 CLAMART CEDEX, FRANCE.
# ======================================================================
#                    DE HUJEUX SUR SABLE D'HOSTUN
#          ===============================================


DEBUT(CODE=_F(NOM='WTNV134A',NIV_PUB_WEB='INTERNET',VISU_EFICAS='NON'));


# proprietes hydrauliques
poro = 0.425 ;  # porosite
rhol = 1000. ;  # masse volumique du fluide
kin  = 1.E-8 ;  # permeabilite intrinsinque
k_w  = 1.E10 ;  # module de compressibilite de l'eau
#UNSURK = 1/k_w ;
UNSURK = 1.E-12 ;
visco  = 0.001   ;
dvisco = 0.0     ;
k_int    = DEFI_CONSTANTE(VALE=kin)   ;
viscoliq = DEFI_CONSTANTE(VALE=visco) ;
dviscoli = DEFI_CONSTANTE(VALE=dvisco);


# modules mecaniques [Pa]
K = 516.2E6 ;
G = 238.2E6 ;
# =>
YOUNG   = 9.*K*G /(3.*K+G)        ;
POISSON = (3.*K-2.*G) /(6.*K+2.*G);

degr  = pi /180.
M     = sin(degr*31.)
pcr   = 361.E5*exp(1.) /2.
lambd = 0.1 /(1.-poro)
kapa  = lambd /2.

print 'young=',YOUNG,' /// nu=',POISSON

# pression de preconsolidation [en Pa]
PCR = -1.E6 ;
PCO =  3.E4 ;

# cohesion
r_ela =0.005
b     =0.2
ptrac =1000
p0    =-3.e4
pc    =-1.e6
c = M*r_ela*b*ptrac*(1+log(p0/pc)-1/b-ptrac/p0)
print 'cohesion =',c

#*******************************************************************
#    MAILLAGE + MODELE
#*******************************************************************
MAILLAGE=LIRE_MAILLAGE(FORMAT='MED', );

MODELE=AFFE_MODELE(MAILLAGE=MAILLAGE,
                   AFFE=_F(TOUT         = 'OUI',
                           PHENOMENE    = 'MECANIQUE',
                           MODELISATION = '3D_HM'),
                           INFO         = 1);

MAILLAGE=MODI_MAILLAGE(reuse    = MAILLAGE,
                       MAILLAGE = MAILLAGE,
                       ORIE_PEAU_3D=
                            _F(GROUP_MA=('DEVANT','DROIT','ARRIERE',
                                         'GAUCHE','BAS','HAUT','APPUI',
                                         'COTE')),
                       INFO=1);


#*******************************************************************
#    INCREMENTS DE TEMPS
#*******************************************************************
TEMPS0=DEFI_LIST_REEL(DEBUT=-1.,
                      INTERVALLE=(_F(JUSQU_A =  0., NOMBRE = 1),));

TEMPS1=DEFI_LIST_REEL(DEBUT=0.,
                      INTERVALLE=(_F(JUSQU_A = 10., NOMBRE = 10),
                                  _F(JUSQU_A = 20., NOMBRE = 10),
                                  _F(JUSQU_A = 30., NOMBRE = 10),
                                  _F(JUSQU_A = 40., NOMBRE = 10),
                                  _F(JUSQU_A = 50., NOMBRE = 10),
                                  _F(JUSQU_A = 55., NOMBRE = 5),
                                  _F(JUSQU_A = 60., NOMBRE = 50),
                                  _F(JUSQU_A = 65., NOMBRE = 50),
                                  _F(JUSQU_A = 70., NOMBRE = 50),
                                  _F(JUSQU_A = 74., NOMBRE = 40),
                                  _F(JUSQU_A = 76., NOMBRE = 40),
                                  _F(JUSQU_A = 80., NOMBRE = 40),
                                  _F(JUSQU_A = 90., NOMBRE = 100),
                                  _F(JUSQU_A = 100.,NOMBRE = 100),
                                  _F(JUSQU_A = 110.,NOMBRE = 50),
                                  _F(JUSQU_A = 120.,NOMBRE = 50),
                                  _F(JUSQU_A = 130.,NOMBRE = 50),
                                  _F(JUSQU_A = 140.,NOMBRE = 50),
                                  _F(JUSQU_A = 150.,NOMBRE = 50),
                                  _F(JUSQU_A = 160.,NOMBRE = 50),));

#*******************************************************************
#    MATERIAU : SOL
#*******************************************************************
SOL0=DEFI_MATERIAU(ELAS=_F(E=YOUNG, NU=POISSON, RHO=2500., ALPHA=0.),
                   COMP_THM='LIQU_SATU',
                   THM_INIT=_F(PRE1 = 0.,
                               PORO = poro),
                   THM_DIFFU=_F(RHO       = rhol,
                                BIOT_COEF = 1.,
                                PESA_X    = 0.,
                                PESA_Y    = 0.,
                                PESA_Z    = 0.,
                                PERM_IN   = k_int),
                   THM_LIQU=_F(RHO         = rhol,
                               UN_SUR_K    = UNSURK,
                               VISC        = viscoliq,
                               D_VISC_TEMP = dviscoli));

CHMAT0=AFFE_MATERIAU(MAILLAGE=MAILLAGE,
                    AFFE=_F(TOUT='OUI', MATER=SOL0));

#****************************************************************
#    CHARGEMENT MECANIQUE : FORCE DE COMPRESSION + DDL IMPOSES
#****************************************************************
CHAR_U1=AFFE_CHAR_MECA(MODELE=MODELE,
                       PRES_REP=_F(GROUP_MA='COTE',
                                   PRES = 1.));

CHAR_U2=AFFE_CHAR_MECA(MODELE=MODELE,
                       PRES_REP=_F(GROUP_MA='APPUI',
                                   PRES = 1.));

CHAR_U3=AFFE_CHAR_MECA(MODELE=MODELE,
                       PRES_REP=_F(GROUP_MA='APPUI',PRES = 1.));

DEPL_1=AFFE_CHAR_MECA(MODELE=MODELE,
                      FACE_IMPO=(_F(GROUP_MA='BAS',   DZ = 0.),
                                 _F(GROUP_MA='GAUCHE',DX = 0.),
                                 _F(GROUP_MA='DEVANT',DY = 0.)));


#*****************************************************************
#    CHARGEMENT HYDRAULIQUE :
#    TRIAXIAL NON DRAINE => FLUX NUL SUR TOUTES LES FACES
#                           (realise par defaut)
#*****************************************************************
PRE0=AFFE_CHAR_MECA(MODELE=MODELE,
                    DDL_IMPO=_F(GROUP_MA='ECHAN',PRE1 = 0.));


COEF0=DEFI_FONCTION(NOM_PARA='INST',
                    PROL_DROITE='CONSTANT',
                    VALE=(-1.0, 0.0,
                           0.0, PCO, ));

# ---- premier chargement isotrope en elastique jusqu'a 50kPa
U0M=STAT_NON_LINE(MODELE    = MODELE,
                 CHAM_MATER = CHMAT0,
                 EXCIT=(_F(CHARGE    = CHAR_U1,
                           FONC_MULT = COEF0),
                        _F(CHARGE    = CHAR_U2,
                           FONC_MULT = COEF0),
                        _F(CHARGE    = DEPL_1),
                        _F(CHARGE    = PRE0)),
                 COMP_INCR=_F(RELATION     = 'KIT_HM',
                              RELATION_KIT = ('ELAS','LIQU_SATU','HYDR_UTIL')),
                 CONVERGENCE=_F(RESI_GLOB_RELA = 1.E-6,
                                ITER_GLOB_MAXI = 50),
                 INCREMENT=_F(LIST_INST = TEMPS0,
                              INST_FIN  = 0.));


SIG0=CREA_CHAMP(INFO=1,
                TYPE_CHAM='ELGA_SIEF_R',
                OPERATION='EXTR',
                RESULTAT=U0M,
                NOM_CHAM='SIEF_ELGA',
                INST=0.0,);


#***********************************************************************
#    ESSAI TRIAXIAL NON DRAINE CYCLIQUE
#***********************************************************************
SOL=DEFI_MATERIAU(ELAS=_F(E=YOUNG, NU=POISSON, RHO=2500., ALPHA=0.),
                  HUJEUX=_F(N        = 0.4,
                            BETA     = 24.,
                            D        = 2.5,
                            B        = 0.2,
                            PHI      = 33.,
                            ANGDIL   = 33.,
                            PCO      = -1.E6,
                            PREF     = -1.E6,
                            AMON     = 0.008,
                            ACYC     = 0.0001,
                            CMON     = 0.2,
                            CCYC     = 0.1,
                            RD_ELA   = 0.005,
                            RI_ELA   = 0.001,
                            RHYS     = 0.05,
                            RMOB     = 0.9,
                            XM       = 1.,
                            RD_CYC   = 0.005,
                            RI_CYC   = 0.001,
                            DILA     = 1.0, ),
                   COMP_THM='LIQU_SATU',
                   THM_INIT=_F(PRE1 = 0.,
                               PORO = poro),
                   THM_DIFFU=_F(RHO       = rhol,
                                BIOT_COEF = 1.,
                                PESA_X    = 0.,
                                PESA_Y    = 0.,
                                PESA_Z    = 0.,
                                PERM_IN   = k_int),
                   THM_LIQU=_F(RHO         = rhol,
                               UN_SUR_K    = UNSURK,
                               VISC        = viscoliq,
                               D_VISC_TEMP = dviscoli));

CHMAT=AFFE_MATERIAU(MAILLAGE=MAILLAGE,
                    AFFE=_F(TOUT='OUI', MATER=SOL));

COEF1=DEFI_FONCTION(NOM_PARA    = 'INST',
                    PROL_DROITE = 'CONSTANT',
                    VALE=( 0.0, PCO,
                          10.0, PCO,));

COEF3=DEFI_FONCTION(NOM_PARA='INST',
                    PROL_DROITE='CONSTANT',
                    VALE=( 0.0, 0.00,
                          10.0, -15000.,
                          20.0, 15000.,
                          30.0, -15000.,
                          40.0, 15000.,
                          50.0, -15000.,
                          60.0, 15000,
                          70.0, -15000,
                          80.0, 15000,
                          90.0, -15000.,
                          100.0, 15000.,
                          110.0, -15000.,
                          120.0, 15000.,
                          130.0, -15000.,
                          140.0, 15000,
                          150.0, -15000,
                          160.0, 15000,));

DEFLIST =DEFI_LIST_INST(DEFI_LIST=_F(LIST_INST =TEMPS1 ),
                        ECHEC=_F(EVENEMENT     = 'ERREUR',
                                 ACTION        = 'DECOUPE',
                                 SUBD_METHODE  = 'MANUEL',
                                 SUBD_PAS     = 10,
                                 SUBD_NIVEAU  = 10,),)

U1=STAT_NON_LINE(MODELE=MODELE,
                 CHAM_MATER=CHMAT,
                 EXCIT=(_F(CHARGE = CHAR_U1, FONC_MULT = COEF1),
                        _F(CHARGE = CHAR_U2, FONC_MULT = COEF1),
                        _F(CHARGE = CHAR_U3, FONC_MULT = COEF3),
                        _F(CHARGE = DEPL_1)),
                 ETAT_INIT=_F(SIGM = SIG0,),
                 COMP_INCR=_F(RELATION       = 'KIT_HM',
                              RELATION_KIT   = ('HUJEUX',
                                                'LIQU_SATU','HYDR_UTIL'),
                              RESI_INTE_RELA = 1.E-8,
                              ITER_INTE_PAS  = 0,
                              ALGO_INTE='SPECIFIQUE',
                              ITER_INTE_MAXI = 20,),
                 NEWTON=_F(MATRICE   = 'TANGENTE',
                           REAC_ITER = 1),
                 CONVERGENCE=_F(RESI_GLOB_RELA = 1.E-6,
                                ITER_GLOB_MAXI = 10),
                 ARCHIVAGE=_F(LIST_INST    = TEMPS1,),
                 INCREMENT=_F(LIST_INST    = DEFLIST,
                              INST_INIT    = 0.0,
                              INST_FIN     = 55.0),
                 RECH_LINEAIRE=_F(ITER_LINE_MAXI = 3),);


U1=CALC_CHAMP(reuse=U1,CONTRAINTE=('SIGM_ELNO'),VARI_INTERNE=('VARI_ELNO'),DEFORMATION=('EPSI_ELNO'),RESULTAT=U1)
U1=CALC_CHAMP(reuse= U1, CONTRAINTE='SIGM_NOEU',DEFORMATION='EPSI_NOEU',VARI_INTERNE='VARI_NOEU', RESULTAT= U1);


#-------------------------------------------
#    VALIDATION DE SIRO_ELEM AVEC KIT_HM :
#--------------------------------------------
CALC_CHAMP(reuse=U1,RESULTAT=U1,GROUP_MA='DEVANT',CONTRAINTE=('SIRO_ELEM'))
#IMPR_RESU(RESU=_F(RESULTAT=U1, NOM_CHAM='SIRO_ELEM'))
TEST_RESU(RESU=_F( RESULTAT=U1, NOM_CHAM='SIRO_ELEM',MAILLE='M5',NOM_CMP='SIG_NY', INST=4.0, VALE_CALC=31842.122640648, ))



#-------------------------
#    TEST_RESU AU POINT C
#-------------------------

TAB_SIG=POST_RELEVE_T(ACTION=_F(INTITULE = 'SIGM_NOEU',
                                GROUP_NO = 'C',
                                RESULTAT = U1,
                                NOM_CHAM = 'SIGM_NOEU',
                                INVARIANT = 'OUI',
                                OPERATION= 'EXTRACTION'));

TAB_VAR=POST_RELEVE_T(ACTION=_F(INTITULE = 'VARI_NOEU',
                                GROUP_NO = 'C',
                                RESULTAT = U1,
                                NOM_CHAM = 'VARI_NOEU',
                                NOM_CMP  = ('V1','V2','V3','V4','V5','V6',
                                            'V7','V8','V23'),
                                OPERATION= 'EXTRACTION'));

#IMPR_TABLE(TABLE=TAB_SIG);
#IMPR_TABLE(TABLE=TAB_VAR);

# TEST SUR LA PRESSION ISOTROPE EFFECTIVE PAR RAPPORT AUX REFERENCES LAWYER
TEST_TABLE(CRITERE='RELATIF',
           REFERENCE='SOURCE_EXTERNE',
           PRECISION=1.E-2,
           VALE_CALC=-80224.678327228,
           VALE_REFE=-8.0193699999999997E4,
           NOM_PARA='TRACE',
           TABLE=TAB_SIG,
           FILTRE=_F(CRITERE='ABSOLU',
                     PRECISION=1.0000000000000006E-08,
                     NOM_PARA='INST',
                     VALE=10.0,),
           )

TEST_TABLE(CRITERE='RELATIF',
           REFERENCE='SOURCE_EXTERNE',
           PRECISION=1.E-2,
           VALE_CALC=-73990.989435837,
           VALE_REFE=-7.4078100000000006E4,
           NOM_PARA='TRACE',
           TABLE=TAB_SIG,
           FILTRE=_F(CRITERE='ABSOLU',
                     PRECISION=1.0000000000000006E-08,
                     NOM_PARA='INST',
                     VALE=20.0,),
           )

TEST_TABLE(CRITERE='RELATIF',
           REFERENCE='SOURCE_EXTERNE',
           PRECISION=1.E-2,
           VALE_CALC=-66066.560862502,
           VALE_REFE=-6.6250100000000006E4,
           NOM_PARA='TRACE',
           TABLE=TAB_SIG,
           FILTRE=_F(CRITERE='ABSOLU',
                     PRECISION=1.0000000000000006E-08,
                     NOM_PARA='INST',
                     VALE=30.0,),
           )

TEST_TABLE(CRITERE='RELATIF',
           REFERENCE='SOURCE_EXTERNE',
           PRECISION=0.02,
           VALE_CALC=-52653.714974981,
           VALE_REFE=-52999,
           NOM_PARA='TRACE',
           TABLE=TAB_SIG,
           FILTRE=_F(CRITERE='ABSOLU',
                     PRECISION=1.0000000000000006E-08,
                     NOM_PARA='INST',
                     VALE=40.0,),
           )

TEST_TABLE(CRITERE='RELATIF',
           REFERENCE='SOURCE_EXTERNE',
           PRECISION=0.02,
           VALE_CALC=-45571.53347969,
           VALE_REFE=-4.5671900000000001E4,
           NOM_PARA='TRACE',
           TABLE=TAB_SIG,
           FILTRE=_F(CRITERE='ABSOLU',
                     PRECISION=1.0000000000000006E-08,
                     NOM_PARA='INST',
                     VALE=50.0,),
           )

# TEST DU COEF D ECROUISSAGE ISOROPE CYCLIQUE PAR RAPPORT AUX REFERENCES LAWYER
TEST_TABLE(CRITERE='RELATIF',
           REFERENCE='SOURCE_EXTERNE',
           PRECISION=0.02,
           VALE_CALC= 1.3981451362882E-03,
           VALE_REFE=1.3799999999999999E-3,
           NOM_PARA='V8',
           TABLE=TAB_VAR,
           FILTRE=_F(CRITERE='ABSOLU',
                     PRECISION=1.0000000000000006E-08,
                     NOM_PARA='INST',
                     VALE=15.0,),
           )

TEST_TABLE(CRITERE='RELATIF',
           REFERENCE='SOURCE_EXTERNE',
           PRECISION=0.02,
           VALE_CALC= 2.2000499989669E-03,
           VALE_REFE=2.1700000000000001E-3,
           NOM_PARA='V8',
           TABLE=TAB_VAR,
           FILTRE=_F(CRITERE='ABSOLU',
                     PRECISION=1.0000000000000006E-08,
                     NOM_PARA='INST',
                     VALE=25.0,),
           )

TEST_TABLE(CRITERE='RELATIF',
           REFERENCE='SOURCE_EXTERNE',
           PRECISION=0.029999999999999999,
           VALE_CALC= 3.4101128492258E-03,
           VALE_REFE=3.3700000000000002E-3,
           NOM_PARA='V8',
           TABLE=TAB_VAR,
           FILTRE=_F(CRITERE='ABSOLU',
                     PRECISION=1.0000000000000006E-08,
                     NOM_PARA='INST',
                     VALE=35.0,),
           )

TEST_TABLE(CRITERE='RELATIF',
           REFERENCE='SOURCE_EXTERNE',
           PRECISION=0.040000000000000001,
           VALE_CALC= 5.1804767330922E-03,
           VALE_REFE=5.1000000000000004E-3,
           NOM_PARA='V8',
           TABLE=TAB_VAR,
           FILTRE=_F(CRITERE='ABSOLU',
                     PRECISION=1.0000000000000006E-08,
                     NOM_PARA='INST',
                     VALE=45.0,),
           )

TEST_TABLE(CRITERE='RELATIF',
           REFERENCE='SOURCE_EXTERNE',
           PRECISION=0.070000000000000007,
           VALE_CALC= 1.9406110389497E-03,
           VALE_REFE=1.89E-3,
           NOM_PARA='V8',
           TABLE=TAB_VAR,
           FILTRE=_F(CRITERE='ABSOLU',
                     PRECISION=1.0000000000000006E-08,
                     NOM_PARA='INST',
                     VALE=55.0,),
           )

# TEST DU COEF D ECROUISSAGE DEVIATOIRE CYCLIQUE PAR RAPPORT AUX REFERENCES LAWYER
TEST_TABLE(CRITERE='RELATIF',
           REFERENCE='SOURCE_EXTERNE',
           PRECISION=1.E-2,
           VALE_CALC=0.32570890910785,
           VALE_REFE=0.32600000000000001,
           NOM_PARA='V1',
           TABLE=TAB_VAR,
           FILTRE=_F(CRITERE='ABSOLU',
                     PRECISION=1.0000000000000006E-08,
                     NOM_PARA='INST',
                     VALE=20.0,),
           )

TEST_TABLE(CRITERE='RELATIF',
           REFERENCE='SOURCE_EXTERNE',
           PRECISION=1.E-2,
           VALE_CALC=0.39460553517737,
           VALE_REFE=0.39400000000000002,
           NOM_PARA='V1',
           TABLE=TAB_VAR,
           FILTRE=_F(CRITERE='ABSOLU',
                     PRECISION=1.0000000000000006E-08,
                     NOM_PARA='INST',
                     VALE=30.0,),
           )

TEST_TABLE(CRITERE='RELATIF',
           REFERENCE='SOURCE_EXTERNE',
           PRECISION=1.E-2,
           VALE_CALC=0.39460553517737,
           VALE_REFE=0.39400000000000002,
           NOM_PARA='V1',
           TABLE=TAB_VAR,
           FILTRE=_F(CRITERE='ABSOLU',
                     PRECISION=1.0000000000000006E-08,
                     NOM_PARA='INST',
                     VALE=40.0,),
           )

TEST_TABLE(CRITERE='RELATIF',
           REFERENCE='SOURCE_EXTERNE',
           PRECISION=0.02,
           VALE_CALC=0.57902916222971,
           VALE_REFE=0.57799999999999996,
           NOM_PARA='V1',
           TABLE=TAB_VAR,
           FILTRE=_F(CRITERE='ABSOLU',
                     PRECISION=1.0000000000000006E-08,
                     NOM_PARA='INST',
                     VALE=50.0,),
           )

# TEST SUR LA DEFORMATION VOLUMIQUE PLASTIQUE PAR RAPPORT AUX REFERENCES LAWYER

TEST_TABLE(CRITERE='RELATIF',
           REFERENCE='SOURCE_EXTERNE',
           PRECISION=1.E-2,
           VALE_CALC=-2.6259706276102E-05,
           VALE_REFE=-2.6299999999999999E-05,
           NOM_PARA='V23',
           TABLE=TAB_VAR,
           FILTRE=_F(CRITERE='ABSOLU',
                     PRECISION=1.0000000000000006E-08,
                     NOM_PARA='INST',
                     VALE=10.0,),
           )

TEST_TABLE(CRITERE='RELATIF',
           REFERENCE='SOURCE_EXTERNE',
           PRECISION=0.02,
           VALE_CALC=-2.8071556771899E-05,
           VALE_REFE=-2.7800000000000001E-05,
           NOM_PARA='V23',
           TABLE=TAB_VAR,
           FILTRE=_F(CRITERE='ABSOLU',
                     PRECISION=1.0000000000000006E-08,
                     NOM_PARA='INST',
                     VALE=15.0,),
           )

TEST_TABLE(CRITERE='RELATIF',
           REFERENCE='SOURCE_EXTERNE',
           PRECISION=0.02,
           VALE_CALC=-4.4851269382164E-05,
           VALE_REFE=-4.4299999999999999E-05,
           NOM_PARA='V23',
           TABLE=TAB_VAR,
           FILTRE=_F(CRITERE='ABSOLU',
                     PRECISION=1.0000000000000006E-08,
                     NOM_PARA='INST',
                     VALE=25.0,),
           )

TEST_TABLE(CRITERE='RELATIF',
           REFERENCE='SOURCE_EXTERNE',
           PRECISION=0.029999999999999999,
           VALE_CALC=-7.1292740027132E-05,
           VALE_REFE=-7.0500000000000006E-05,
           NOM_PARA='V23',
           TABLE=TAB_VAR,
           FILTRE=_F(CRITERE='ABSOLU',
                     PRECISION=1.0000000000000006E-08,
                     NOM_PARA='INST',
                     VALE=35.0,),
           )

TEST_TABLE(CRITERE='RELATIF',
           REFERENCE='SOURCE_EXTERNE',
           PRECISION=0.040000000000000001,
           VALE_CALC=-1.128626988227E-04,
           VALE_REFE=-1.11E-4,
           NOM_PARA='V23',
           TABLE=TAB_VAR,
           FILTRE=_F(CRITERE='ABSOLU',
                     PRECISION=1.0000000000000006E-08,
                     NOM_PARA='INST',
                     VALE=45.0,),
           )

TEST_TABLE(CRITERE='RELATIF',
           REFERENCE='SOURCE_EXTERNE',
           PRECISION=0.040000000000000001,
           VALE_CALC=-1.8623135906056E-04,
           VALE_REFE=-1.85E-4,
           NOM_PARA='V23',
           TABLE=TAB_VAR,
           FILTRE=_F(CRITERE='ABSOLU',
                     PRECISION=1.0000000000000006E-08,
                     NOM_PARA='INST',
                     VALE=55.0,),
           )

#************************************************************************
# ON POURSUIT AU-DELA DE LA LIQUEFACTION AVEC UNE COHESION PTRAC = 1000Pa
#************************************************************************
SOL1=DEFI_MATERIAU(ELAS=_F(E=YOUNG, NU=POISSON, RHO=2500., ALPHA=0.),
                  HUJEUX=_F(N        = 0.4,
                            BETA     = 24.,
                            D        = 2.5,
                            B        = 0.2,
                            PHI      = 33.,
                            ANGDIL   = 33.,
                            PCO      = -1.E6,
                            PREF     = -1.E6,
                            AMON     = 0.008,
                            ACYC     = 0.0001,
                            CMON     = 0.2,
                            CCYC     = 0.1,
                            RD_ELA   = 0.005,
                            RI_ELA   = 0.001,
                            RHYS     = 0.05,
                            RMOB     = 0.9,
                            XM       = 1.,
                            RD_CYC   = 0.005,
                            RI_CYC   = 0.001,
                            DILA     = 1.0,
                            PTRAC    = 1000.),
                   COMP_THM='LIQU_SATU',
                   THM_INIT=_F(PRE1 = 0.,
                               PORO = poro),
                   THM_DIFFU=_F(RHO       = rhol,
                                BIOT_COEF = 1.,
                                PESA_X    = 0.,
                                PESA_Y    = 0.,
                                PESA_Z    = 0.,
                                PERM_IN   = k_int),
                   THM_LIQU=_F(RHO         = rhol,
                               UN_SUR_K    = UNSURK,
                               VISC        = viscoliq,
                               D_VISC_TEMP = dviscoli));

CHMAT1=AFFE_MATERIAU(MAILLAGE=MAILLAGE,
                    AFFE=_F(TOUT='OUI', MATER=SOL1));

inst_init_1=55.
inst_fin_1 =67.
U2=STAT_NON_LINE(MODELE=MODELE,
                 CHAM_MATER=CHMAT1,
                 EXCIT=(_F(CHARGE = CHAR_U1, FONC_MULT = COEF1),
                        _F(CHARGE = CHAR_U2, FONC_MULT = COEF1),
                        _F(CHARGE = CHAR_U3, FONC_MULT = COEF3),
                        _F(CHARGE = DEPL_1)),
                 ETAT_INIT=_F(EVOL_NOLI=U1,
                              INST     =inst_init_1,
                              PRECISION=1.E-6),
                 COMP_INCR=_F(RELATION      = 'KIT_HM',
                              RELATION_KIT  = ('HUJEUX',
                                               'LIQU_SATU','HYDR_UTIL'),
                              ALGO_INTE='SPECIFIQUE',
                              RESI_INTE_RELA= 1.E-8,
                              ITER_INTE_PAS = 0,
                              ITER_INTE_MAXI = 20),
                 NEWTON=_F(MATRICE   = 'TANGENTE',
                           REAC_ITER = 1),
                 CONVERGENCE=_F(RESI_GLOB_RELA = 1.E-6,
                                ITER_GLOB_MAXI = 20,),
                 ARCHIVAGE=_F(LIST_INST    = TEMPS1,),
                 INCREMENT=_F(LIST_INST    = DEFLIST,
                              INST_INIT    = inst_init_1,
                              INST_FIN     = inst_fin_1),
                 RECH_LINEAIRE=_F(METHODE='MIXTE',ITER_LINE_MAXI = 3),);


#-------------------------
#    TEST_RESU AU POINT C
#-------------------------
U2=CALC_CHAMP(reuse=U2,
              CONTRAINTE=('SIGM_ELNO'),
              CRITERES=('SIEQ_ELGA','SIEQ_ELNO','EPEQ_ELGA','EPEQ_ELNO'),
              VARI_INTERNE=('VARI_ELNO'),
              DEFORMATION=('EPSI_ELNO'),
              RESULTAT=U2,);


U2=CALC_CHAMP(reuse      = U2,

           CONTRAINTE='SIGM_NOEU',DEFORMATION='EPSI_NOEU',VARI_INTERNE='VARI_NOEU',
           RESULTAT   = U2);

TAB_SIG2=POST_RELEVE_T(ACTION=_F(INTITULE = 'SIGM_NOEU',
                                 GROUP_NO = 'C',
                                 RESULTAT = U2,
                                 NOM_CHAM = 'SIGM_NOEU',
                                 TOUT_CMP = 'OUI',
                                 OPERATION= 'EXTRACTION'));

SIGMA_N = FORMULE(NOM_PARA=('SIXX','SIZZ'), VALE='0.5*(SIXX+SIZZ)');
SIGMA_D = FORMULE(NOM_PARA=('SIXX','SIZZ'), VALE='0.5*(SIXX-SIZZ)');

TAB_EPS2=POST_RELEVE_T(ACTION=_F(INTITULE = 'EPSI_NOEU',
                                 GROUP_NO = 'C',
                                 RESULTAT = U2,
                                 NOM_CHAM = 'EPSI_NOEU',
                                 TOUT_CMP = 'OUI',
                                 OPERATION= 'EXTRACTION'));

TAB_SIG2=CALC_TABLE(reuse=TAB_SIG2,
                    TABLE=TAB_SIG2,
                    ACTION=(_F(OPERATION='OPER',
                               FORMULE  =SIGMA_N,
                               NOM_PARA ='SIGMA_N',),
                            _F(OPERATION='OPER',
                               FORMULE  =SIGMA_D,
                               NOM_PARA ='SIGMA_D',),),);

TAB_VAR2=POST_RELEVE_T(ACTION=_F(INTITULE = 'VARI_NOEU',
                                 GROUP_NO = 'C',
                                 RESULTAT = U2,
                                 NOM_CHAM = 'VARI_NOEU',
                                 NOM_CMP  = ('V1','V2','V3','V4','V5','V6',
                                            'V7','V8','V23'),
                                 OPERATION= 'EXTRACTION'));

IMPR_TABLE(TABLE=TAB_SIG2);
IMPR_TABLE(TABLE=TAB_EPS2);
IMPR_TABLE(TABLE=TAB_VAR2);

# TEST DU DEVIATEUR DES CONTRAINTES PAR RAPPORT
# A UN CALCUL LAWYER (GEFDYN)
TEST_TABLE(CRITERE='RELATIF',
           REFERENCE='SOURCE_EXTERNE',
           PRECISION=0.10000000000000001,
           VALE_CALC= 1.49999930E+03,
           VALE_REFE=1590.0,
           NOM_PARA='SIGMA_D',
           TABLE=TAB_SIG2,
           FILTRE=_F(CRITERE='ABSOLU',
                     PRECISION=1.0000000000000006E-08,
                     NOM_PARA='INST',
                     VALE=56.0,),
           )

TEST_TABLE(CRITERE='RELATIF',
           REFERENCE='SOURCE_EXTERNE',
           PRECISION=0.02,
           VALE_CALC= 7.49999949E+03,
           VALE_REFE=7445.0,
           NOM_PARA='SIGMA_D',
           TABLE=TAB_SIG2,
           FILTRE=_F(CRITERE='ABSOLU',
                     PRECISION=1.0000000000000006E-08,
                     NOM_PARA='INST',
                     VALE=60.0,),
           )

TEST_TABLE(CRITERE='RELATIF',
           REFERENCE='SOURCE_EXTERNE',
           PRECISION=0.050000000000000003,
           VALE_CALC= 3.00000736E+03,
           VALE_REFE=2910.0,
           NOM_PARA='SIGMA_D',
           TABLE=TAB_SIG2,
           FILTRE=_F(CRITERE='ABSOLU',
                     PRECISION=1.0000000000000006E-08,
                     NOM_PARA='INST',
                     VALE=63.0,),
           )

TEST_TABLE(CRITERE='ABSOLU',
           REFERENCE='SOURCE_EXTERNE',
           PRECISION=100.0,
           VALE_CALC= 1.6742317648095E-03,
           VALE_REFE=-75.0,
           NOM_PARA='SIGMA_D',
           TABLE=TAB_SIG2,
           FILTRE=_F(CRITERE='ABSOLU',
                     PRECISION=1.0000000000000006E-08,
                     NOM_PARA='INST',
                     VALE=65.0,),
           )

# TEST DE LA CONTRAINTE ISOTROPE PAR RAPPORT
# A UN CALCUL LAWYER (GEFDYN)
TEST_TABLE(CRITERE='RELATIF',
           REFERENCE='SOURCE_EXTERNE',
           PRECISION=0.060000000000000003,
           VALE_CALC=-7812.7996683627,
           VALE_REFE=-7420.0,
           NOM_PARA='SIGMA_N',
           TABLE=TAB_SIG2,
           FILTRE=_F(CRITERE='ABSOLU',
                     PRECISION=1.0000000000000006E-08,
                     NOM_PARA='INST',
                     VALE=56.0,),
           )

TEST_TABLE(CRITERE='RELATIF',
           REFERENCE='SOURCE_EXTERNE',
           PRECISION=0.050000000000000003,
           VALE_CALC=-11404.540721493,
           VALE_REFE=-1.1255E4,
           NOM_PARA='SIGMA_N',
           TABLE=TAB_SIG2,
           FILTRE=_F(CRITERE='ABSOLU',
                     PRECISION=1.0000000000000006E-08,
                     NOM_PARA='INST',
                     VALE=60.0,),
           )

TEST_TABLE(CRITERE='RELATIF',
           REFERENCE='SOURCE_EXTERNE',
           PRECISION=0.10000000000000001,
           VALE_CALC=-8515.6114080934,
           VALE_REFE=-7970.0,
           NOM_PARA='SIGMA_N',
           TABLE=TAB_SIG2,
           FILTRE=_F(CRITERE='ABSOLU',
                     PRECISION=1.0000000000000006E-08,
                     NOM_PARA='INST',
                     VALE=63.0,),
           )

TEST_TABLE(CRITERE='RELATIF',
           REFERENCE='SOURCE_EXTERNE',
           PRECISION=0.050000000000000003,
           VALE_CALC=-3954.3333451961,
           VALE_REFE=-3953.0,
           NOM_PARA='SIGMA_N',
           TABLE=TAB_SIG2,
           FILTRE=_F(CRITERE='ABSOLU',
                     PRECISION=1.0000000000000006E-08,
                     NOM_PARA='INST',
                     VALE=65.0,),
           )

# TEST DU RAYON DEVIATOIRE CYCLIQUE PAR RAPPORT
# A UN CALCUL LAWYER (GEFDYN)
TEST_TABLE(CRITERE='RELATIF',
           REFERENCE='SOURCE_EXTERNE',
           PRECISION=0.10000000000000001,
           VALE_CALC=0.36975350453277,
           VALE_REFE=0.34599999999999997,
           NOM_PARA='V5',
           TABLE=TAB_VAR2,
           FILTRE=_F(CRITERE='ABSOLU',
                     PRECISION=1.0000000000000006E-08,
                     NOM_PARA='INST',
                     VALE=56.0,),
           )

TEST_TABLE(CRITERE='RELATIF',
           REFERENCE='SOURCE_EXTERNE',
           PRECISION=1.E-2,
           VALE_CALC= 5.00000000E-03,
           VALE_REFE=5.0000000000000001E-3,
           NOM_PARA='V5',
           TABLE=TAB_VAR2,
           FILTRE=_F(CRITERE='ABSOLU',
                     PRECISION=1.0000000000000006E-08,
                     NOM_PARA='INST',
                     VALE=60.0,),
           )

TEST_TABLE(CRITERE='RELATIF',
           REFERENCE='SOURCE_EXTERNE',
           PRECISION=0.10000000000000001,
           VALE_CALC=0.14560867023044,
           VALE_REFE=0.13700000000000001,
           NOM_PARA='V5',
           TABLE=TAB_VAR2,
           FILTRE=_F(CRITERE='ABSOLU',
                     PRECISION=1.0000000000000006E-08,
                     NOM_PARA='INST',
                     VALE=63.0,),
           )

TEST_TABLE(CRITERE='RELATIF',
           REFERENCE='SOURCE_EXTERNE',
           PRECISION=0.050000000000000003,
           VALE_CALC=0.29542459970053,
           VALE_REFE=0.30199999999999999,
           NOM_PARA='V5',
           TABLE=TAB_VAR2,
           FILTRE=_F(CRITERE='ABSOLU',
                     PRECISION=1.0000000000000006E-08,
                     NOM_PARA='INST',
                     VALE=65.0,),
           )

# TEST DE LA DEFORMATION PLASTIQUE VOLUMIQUE PAR RAPPORT
# A UN CALCUL LAWYER (GEFDYN)
TEST_TABLE(CRITERE='RELATIF',
           REFERENCE='SOURCE_EXTERNE',
           PRECISION=0.14999999999999999,
           VALE_CALC=-2.2536216820816E-04,
           VALE_REFE=-2.1100000000000001E-4,
           NOM_PARA='V23',
           TABLE=TAB_VAR2,
           FILTRE=_F(CRITERE='ABSOLU',
                     PRECISION=1.0000000000000006E-08,
                     NOM_PARA='INST',
                     VALE=56.0,),
           )

TEST_TABLE(CRITERE='RELATIF',
           REFERENCE='SOURCE_EXTERNE',
           PRECISION=1.E-2,
           VALE_CALC=-2.0440694660842E-04,
           VALE_REFE=-2.05E-4,
           NOM_PARA='V23',
           TABLE=TAB_VAR2,
           FILTRE=_F(CRITERE='ABSOLU',
                     PRECISION=1.0000000000000006E-08,
                     NOM_PARA='INST',
                     VALE=60.0,),
           )

TEST_TABLE(CRITERE='RELATIF',
           REFERENCE='SOURCE_EXTERNE',
           PRECISION=0.050000000000000003,
           VALE_CALC=-2.2279509603345E-04,
           VALE_REFE=-2.1900000000000001E-4,
           NOM_PARA='V23',
           TABLE=TAB_VAR2,
           FILTRE=_F(CRITERE='ABSOLU',
                     PRECISION=1.0000000000000006E-08,
                     NOM_PARA='INST',
                     VALE=63.0,),
           )

TEST_TABLE(CRITERE='RELATIF',
           REFERENCE='SOURCE_EXTERNE',
           PRECISION=0.15000000000000001,
           VALE_CALC=-2.7787768385827E-04,
           VALE_REFE=-2.52E-4,
           NOM_PARA='V23',
           TABLE=TAB_VAR2,
           FILTRE=_F(CRITERE='ABSOLU',
                     PRECISION=1.0000000000000006E-08,
                     NOM_PARA='INST',
                     VALE=65.0,),
           )

TEST_TABLE(CRITERE='RELATIF',
           REFERENCE='SOURCE_EXTERNE',
           PRECISION=0.20000000000000001,
           VALE_CALC=-2.5205696309886E-04,
           VALE_REFE=-2.92E-4,
           NOM_PARA='V23',
           TABLE=TAB_VAR2,
           FILTRE=_F(CRITERE='ABSOLU',
                     PRECISION=1.0000000000000006E-08,
                     NOM_PARA='INST',
                     VALE=67.0,),
           )

FIN();
