# TITRE TEST HM, 3D , MODELISATION THMC=LIQU_SATU
# ======================================================================
# COPYRIGHT (C) 1991 - 2012  EDF R&D                  WWW.CODE-ASTER.ORG
# THIS PROGRAM IS FREE SOFTWARE; YOU CAN REDISTRIBUTE IT AND/OR MODIFY
# IT UNDER THE TERMS OF THE GNU GENERAL PUBLIC LICENSE AS PUBLISHED BY
# THE FREE SOFTWARE FOUNDATION; EITHER VERSION 2 OF THE LICENSE, OR
# (AT YOUR OPTION) ANY LATER VERSION.
#
# THIS PROGRAM IS DISTRIBUTED IN THE HOPE THAT IT WILL BE USEFUL, BUT
# WITHOUT ANY WARRANTY; WITHOUT EVEN THE IMPLIED WARRANTY OF
# MERCHANTABILITY OR FITNESS FOR A PARTICULAR PURPOSE. SEE THE GNU
# GENERAL PUBLIC LICENSE FOR MORE DETAILS.
#
# YOU SHOULD HAVE RECEIVED A COPY OF THE GNU GENERAL PUBLIC LICENSE
# ALONG WITH THIS PROGRAM; IF NOT, WRITE TO EDF R&D CODE_ASTER,
#    1 AVENUE DU GENERAL DE GAULLE, 92141 CLAMART CEDEX, FRANCE.
# ======================================================================
DEBUT(CODE=_F(NIV_PUB_WEB='INTERNET'),DEBUG=_F(SDVERI='OUI'))

#
####################################
#   OPERATIONS SUR LE MAILLAGE
#
####################################
MAIL=LIRE_MAILLAGE(FORMAT='MED',)

MAIL=DEFI_GROUP( reuse=MAIL,  MAILLAGE=MAIL,CREA_GROUP_NO=(
                      _F( GROUP_MA = 'BAS'),
                      _F( GROUP_MA = 'HAUT'))
                     )

MODELE=AFFE_MODELE(   MAILLAGE=MAIL,
                        AFFE=_F(  TOUT = 'OUI',
                      PHENOMENE = 'MECANIQUE',
                      MODELISATION = '3D_HM')
                     )

####################################
#  LISTE DES INSTANTS DE CALCUL
####################################
LI=DEFI_LIST_REEL(   DEBUT=0.,INTERVALLE=(
                       _F(  JUSQU_A = 1.E0,  NOMBRE = 1),
                       _F(  JUSQU_A = 5.E0,  NOMBRE = 1),
                       _F(  JUSQU_A = 1.E1,  NOMBRE = 1),
                       _F(  JUSQU_A = 5.E1,  NOMBRE = 1),
                       _F(  JUSQU_A = 1.E2,  NOMBRE = 1),
                       _F(  JUSQU_A = 5.E2,  NOMBRE = 1),
                       _F(  JUSQU_A = 1.E3,  NOMBRE = 1))
                     )

ARCHI=DEFI_LIST_REEL(    DEBUT=0.,INTERVALLE=(
                       _F(  JUSQU_A = 1.E0,  NOMBRE = 1),
                       _F(  JUSQU_A = 5.E0,  NOMBRE = 1),
                       _F(  JUSQU_A = 1.E1,  NOMBRE = 1),
                       _F(  JUSQU_A = 5.E1,  NOMBRE = 1),
                       _F(  JUSQU_A = 1.E2,  NOMBRE = 1),
                       _F(  JUSQU_A = 5.E2,  NOMBRE = 1),
                       _F(  JUSQU_A = 1.E3,  NOMBRE = 1))
                 )

############################################
#
# DEFINITION DES FONCTIONS DE COMPORTEMENT :
# VISCOSITE LIQUIDE ET GAZ : UNITE : PA.S
#
####
VISCOLIQ=DEFI_CONSTANTE(    VALE=1.E-3)

DVISCOL=DEFI_CONSTANTE(    VALE=0.)

####

DCONDLI = DEFI_CONSTANTE ( VALE = 0.   )
CONDGAZ = DEFI_CONSTANTE ( VALE = 0.02 )
DCONDGA = DEFI_CONSTANTE ( VALE = 0.   )

PERMGAZ=DEFI_CONSTANTE(    VALE=1.)
DPERGSA=DEFI_CONSTANTE(    VALE=0.)
DPERGPG=DEFI_CONSTANTE(    VALE=0.)

#####

#
# AUTRES FONCTIONS DE COMPORTEMENT
# PERMEABILITE INTRINSEQUE, RELATIVE DU LIQUIDE, RELATIVE DU GAZ
# UNITE INTRINSEQUE : METRES CARRES , UNITE RELATIVE : SANS
#
KINT=DEFI_CONSTANTE(    VALE=1.E-18)

UN=DEFI_CONSTANTE(    VALE=1.)

ZERO=DEFI_CONSTANTE(    VALE=0.)

MATERIAU=DEFI_MATERIAU(     THM_LIQU=_F(
   RHO = 1000.,
   UN_SUR_K = 3.77E-9,
   ALPHA = 1.E-4,
   CP = 2.85E6,
   VISC = UN,
   D_VISC_TEMP = ZERO,),
                              THM_GAZ=_F(
   MASS_MOL = 28.96E-3,
   CP = 1000.,
   VISC = VISCOLIQ,
   D_VISC_TEMP = DVISCOL,),
                              THM_DIFFU=_F(
   R_GAZ = 8.315,
   RHO = 1.6E3,
   CP = 2.85E6,
   BIOT_COEF = 1.,
   SATU_PRES = UN,
   D_SATU_PRES = ZERO,
   PESA_X = 0.,
   PESA_Y = 0.,
   PESA_Z = 0.,
   PERM_IN = KINT,
   PERM_LIQU = UN,
   D_PERM_LIQU_SATU = ZERO,
   PERM_GAZ = PERMGAZ,
   D_PERM_SATU_GAZ = DPERGSA,
   D_PERM_PRES_GAZ = DPERGPG,),
                              THM_INIT=_F(
   TEMP = 293.,
   PRE1 = 0.,
   PRE2 = 1.E5,
   PORO = 0.4,
   PRES_VAPE = 1.),
                               COMP_THM = 'LIQU_SATU',
                                     ELAS=_F(
   E = 225.E6,
   NU = 0.,
   RHO = 2000.,
   ALPHA = 8.E-6)
   )

CHMAT0=AFFE_MATERIAU(   MAILLAGE=MAIL,
                          AFFE=_F( TOUT = 'OUI',
                        MATER = MATERIAU))

CH_FLU1=AFFE_CHAR_MECA(   MODELE=MODELE,FLUX_THM_REP=(
                          _F(
                                  GROUP_MA = 'HAUT',
                                  FLUN_HYDR1 = 0.005),
                          _F(
                                  GROUP_MA = 'BAS',
                                  FLUN_HYDR1 = 0.))
                                   )

CHARHO=AFFE_CHAR_MECA(   MODELE=MODELE,
                          DDL_IMPO=_F(  TOUT = 'OUI',
                                    DX = 0.,
                                    DY = 0.,
                                    DZ = 0.)
                                   )

RESU0=STAT_NON_LINE(
                            MODELE=MODELE,
                           SOLVEUR=_F(
                METHODE = 'LDLT'),
                        CHAM_MATER=CHMAT0,EXCIT=(
                             _F(
                CHARGE = CHARHO),
                             _F(
                CHARGE = CH_FLU1)),
                         COMPORTEMENT=_F( PARM_THETA=1.,
                RELATION = 'KIT_HM',
                RELATION_KIT = ('ELAS','LIQU_SATU','HYDR_UTIL',),
                ITER_INTE_MAXI = 5),
                         INCREMENT=_F(
                LIST_INST = LI),
                            NEWTON=_F(
                MATRICE = 'TANGENTE',
                REAC_ITER = 121),
                       CONVERGENCE=_F(
                RESI_GLOB_RELA = 1.E-6,
                ITER_GLOB_MAXI = 120),
                         ARCHIVAGE=_F(
                LIST_INST = ARCHI)
              )
RESU0=CALC_CHAMP( reuse= RESU0, RESULTAT= RESU0, CONTRAINTE=('SIGM_ELGA',), )

TEST_RESU(RESU=_F(NUME_ORDRE=1,
                  RESULTAT=RESU0,
                  NOM_CHAM='DEPL',
                  NOEUD='NO20',
                  NOM_CMP='PRE1',
                  VALE_CALC=-6.63129966E+03,
                  VALE_REFE=-6624.96,
                  REFERENCE='NON_DEFINI',
                  PRECISION=0.050000000000000003,),
          )

TEST_RESU(RESU=_F(NUME_ORDRE=1,
                  RESULTAT=RESU0,
                  NOM_CHAM='DEPL',
                  NOEUD='NO1',
                  NOM_CMP='PRE1',
                  VALE_CALC= 1.32625994E+04,
                  VALE_REFE=1.3250E4,
                  REFERENCE='NON_DEFINI',
                  PRECISION=0.050000000000000003,),
          )

TEST_RESU(RESU=_F(NUME_ORDRE=2,
                  RESULTAT=RESU0,
                  NOM_CHAM='DEPL',
                  NOEUD='NO20',
                  NOM_CMP='PRE1',
                  VALE_CALC=-3.31561654E+04,
                  VALE_REFE=-3.3097E4,
                  REFERENCE='NON_DEFINI',
                  PRECISION=0.050000000000000003,),
          )

TEST_RESU(RESU=_F(NUME_ORDRE=2,
                  RESULTAT=RESU0,
                  NOM_CHAM='DEPL',
                  NOEUD='NO1',
                  NOM_CMP='PRE1',
                  VALE_CALC= 6.63113379E+04,
                  VALE_REFE=6.6182600000000006E4,
                  REFERENCE='NON_DEFINI',
                  PRECISION=0.050000000000000003,),
          )

TEST_RESU(RESU=_F(NUME_ORDRE=3,
                  RESULTAT=RESU0,
                  NOM_CHAM='DEPL',
                  NOEUD='NO20',
                  NOM_CMP='PRE1',
                  VALE_CALC=-6.63105880E+04,
                  VALE_REFE=-6.6111899999999994E4,
                  REFERENCE='NON_DEFINI',
                  PRECISION=0.050000000000000003,),
          )

TEST_RESU(RESU=_F(NUME_ORDRE=3,
                  RESULTAT=RESU0,
                  NOM_CHAM='DEPL',
                  NOEUD='NO1',
                  NOM_CMP='PRE1',
                  VALE_CALC= 1.32613971E+05,
                  VALE_REFE=1.32230E5,
                  REFERENCE='NON_DEFINI',
                  PRECISION=0.050000000000000003,),
          )

TEST_RESU(RESU=_F(NUME_ORDRE=4,
                  RESULTAT=RESU0,
                  NOM_CHAM='DEPL',
                  NOEUD='NO20',
                  NOM_CMP='PRE1',
                  VALE_CALC=-3.31529268E+05,
                  VALE_REFE=-3.30087E5,
                  REFERENCE='NON_DEFINI',
                  PRECISION=0.050000000000000003,),
          )

TEST_RESU(RESU=_F(NUME_ORDRE=4,
                  RESULTAT=RESU0,
                  NOM_CHAM='DEPL',
                  NOEUD='NO1',
                  NOM_CMP='PRE1',
                  VALE_CALC= 6.62952047E+05,
                  VALE_REFE=6.60346E5,
                  REFERENCE='NON_DEFINI',
                  PRECISION=0.050000000000000003,),
          )

TEST_RESU(RESU=_F(NUME_ORDRE=7,
                  RESULTAT=RESU0,
                  NOM_CHAM='DEPL',
                  NOEUD='NO20',
                  NOM_CMP='PRE1',
                  VALE_CALC=-6.60708260E+06,
                  VALE_REFE=-6.520330E6,
                  REFERENCE='NON_DEFINI',
                  PRECISION=0.050000000000000003,),
          )

TEST_RESU(RESU=_F(NUME_ORDRE=7,
                  RESULTAT=RESU0,
                  NOM_CHAM='DEPL',
                  NOEUD='NO1',
                  NOM_CMP='PRE1',
                  VALE_CALC= 1.31421556E+07,
                  VALE_REFE=1.3118900E7,
                  REFERENCE='NON_DEFINI',
                  PRECISION=0.050000000000000003,),
          )

FIN()
#
#
