# TITRE TEST HM 3D, MODELISATION THMC=LIQU_GAZ_ATM
# ======================================================================
# COPYRIGHT (C) 1991 - 2012  EDF R&D                  WWW.CODE-ASTER.ORG
# THIS PROGRAM IS FREE SOFTWARE; YOU CAN REDISTRIBUTE IT AND/OR MODIFY
# IT UNDER THE TERMS OF THE GNU GENERAL PUBLIC LICENSE AS PUBLISHED BY
# THE FREE SOFTWARE FOUNDATION; EITHER VERSION 2 OF THE LICENSE, OR
# (AT YOUR OPTION) ANY LATER VERSION.
#
# THIS PROGRAM IS DISTRIBUTED IN THE HOPE THAT IT WILL BE USEFUL, BUT
# WITHOUT ANY WARRANTY; WITHOUT EVEN THE IMPLIED WARRANTY OF
# MERCHANTABILITY OR FITNESS FOR A PARTICULAR PURPOSE. SEE THE GNU
# GENERAL PUBLIC LICENSE FOR MORE DETAILS.
#
# YOU SHOULD HAVE RECEIVED A COPY OF THE GNU GENERAL PUBLIC LICENSE
# ALONG WITH THIS PROGRAM; IF NOT, WRITE TO EDF R&D CODE_ASTER,
#    1 AVENUE DU GENERAL DE GAULLE, 92141 CLAMART CEDEX, FRANCE.
# ======================================================================
DEBUT(CODE=_F(NOM='WTNV113H',NIV_PUB_WEB='INTERNET'),DEBUG=_F(SDVERI='OUI'))

#
####################################
#   OPERATIONS SUR LE MAILLAGE
#
####################################
MAIL=LIRE_MAILLAGE(FORMAT='MED',)

MODELE=AFFE_MODELE(   MAILLAGE=MAIL,
                        AFFE=_F(  TOUT = 'OUI',
                      PHENOMENE = 'MECANIQUE',
                      MODELISATION = '3D_THM')
                     )

####################################
#  LISTE DES INSTANTS DE CALCUL
####################################
LI=DEFI_LIST_REEL(   DEBUT=0.,INTERVALLE=(
                       _F(  JUSQU_A = 1.E0,  NOMBRE = 1),
                       _F(  JUSQU_A = 5.E0,  NOMBRE = 1),
                       _F(  JUSQU_A = 1.E1,  NOMBRE = 1),
                       _F(  JUSQU_A = 5.E1,  NOMBRE = 1),
                       _F(  JUSQU_A = 1.E2,  NOMBRE = 1),
                       _F(  JUSQU_A = 5.E2,  NOMBRE = 1),
                       _F(  JUSQU_A = 1.E3,  NOMBRE = 1),
                       _F(  JUSQU_A = 5.E3,  NOMBRE = 1),
                       _F(  JUSQU_A = 1.E4,  NOMBRE = 1),
                       _F(  JUSQU_A = 5.E4,  NOMBRE = 1),
                       _F(  JUSQU_A = 1.E5,  NOMBRE = 1),
                       _F(  JUSQU_A = 5.E5,  NOMBRE = 1),
                       _F(  JUSQU_A = 1.E6,  NOMBRE = 1),
                       _F(  JUSQU_A = 5.E6,  NOMBRE = 1),
                       _F(  JUSQU_A = 1.E7,  NOMBRE = 1),
                       _F(  JUSQU_A = 1.E10, NOMBRE = 1))
                     )

ARCHI=DEFI_LIST_REEL(    DEBUT=0.,INTERVALLE=(
                       _F(  JUSQU_A = 1.E0,  NOMBRE = 1),
                       _F(  JUSQU_A = 5.E0,  NOMBRE = 1),
                       _F(  JUSQU_A = 1.E1,  NOMBRE = 1),
                       _F(  JUSQU_A = 5.E1,  NOMBRE = 1),
                       _F(  JUSQU_A = 1.E2,  NOMBRE = 1),
                       _F(  JUSQU_A = 5.E2,  NOMBRE = 1),
                       _F(  JUSQU_A = 1.E3,  NOMBRE = 1),
                       _F(  JUSQU_A = 5.E3,  NOMBRE = 1),
                       _F(  JUSQU_A = 1.E4,  NOMBRE = 1),
                       _F(  JUSQU_A = 5.E4,  NOMBRE = 1),
                       _F(  JUSQU_A = 1.E5,  NOMBRE = 1),
                       _F(  JUSQU_A = 5.E5,  NOMBRE = 1),
                       _F(  JUSQU_A = 1.E6,  NOMBRE = 1),
                       _F(  JUSQU_A = 5.E6,  NOMBRE = 1),
                       _F(  JUSQU_A = 1.E7,  NOMBRE = 1),
                       _F(  JUSQU_A = 1.E10, NOMBRE = 1))
                 )

############################################
#
#
############################################
#
# DEFINITION DES FONCTIONS DE COMPORTEMENT :
# VISCOSITE LIQUIDE : UNITE : PA.S
#
####
VISCOLIQ=DEFI_CONSTANTE(    VALE=1.E-3)

VISCOGAZ=DEFI_CONSTANTE(    VALE=1.E-5)

DVISCOL=DEFI_CONSTANTE(    VALE=0.)

DVISCOG=DEFI_CONSTANTE(    VALE=0.)

#####
KINT=DEFI_CONSTANTE(    VALE=1.E-18)

DPERGSA=DEFI_CONSTANTE(    VALE=0.)

DPERGPG=DEFI_CONSTANTE(    VALE=0.)


UN=DEFI_CONSTANTE(    VALE=1.)

ZERO=DEFI_CONSTANTE(    VALE=0.)

MATERIAU=DEFI_MATERIAU(     THM_LIQU=_F(
   RHO = 1000.,
   UN_SUR_K = 3.77E-9,
   ALPHA = 1.E-4,
   CP = 2.85E6,
   VISC = VISCOLIQ,
   D_VISC_TEMP = DVISCOL,),
                              THM_GAZ=_F(
   MASS_MOL = 28.96E-3,
   CP = 1000.,
   VISC = UN,
   D_VISC_TEMP = ZERO,),
                              THM_VAPE_GAZ=_F(
   MASS_MOL = 18.E-3,
   CP = 1870.,
   VISC = VISCOGAZ,
   D_VISC_TEMP = DVISCOG),
                              THM_DIFFU=_F(
   R_GAZ = 8.315,
   RHO = 1.6E3,
   CP = 2.85E6,
   BIOT_COEF = 1.,
   SATU_PRES = UN,
   D_SATU_PRES = ZERO,
   PESA_X = 0.,
   PESA_Y = 0.,
   PESA_Z = -10.,
   PERM_IN = KINT,
   PERM_LIQU = UN,
   D_PERM_LIQU_SATU = ZERO,
   PERM_GAZ = UN,
   D_PERM_SATU_GAZ = DPERGSA,
   D_PERM_PRES_GAZ = DPERGPG,
   LAMB_T = UN,),
                              THM_INIT=_F(
   TEMP = 273.,
   PRE1 = 0.,
   PRE2 = 1.E5,
   PORO = 0.4,
   PRES_VAPE = 1.,
   DEGR_SATU = 1.),
          COMP_THM = 'LIQU_GAZ_ATM',
                                     ELAS=_F(
   E = 225.E6,
   NU = 0.,
   RHO = 2000.,
   ALPHA = 8.E-6)
   )

CHMAT0=AFFE_MATERIAU(   MAILLAGE=MAIL,
                          AFFE=_F( TOUT = 'OUI',
                        MATER = MATERIAU))

CHARHO=AFFE_CHAR_MECA(   MODELE=MODELE,
                          DDL_IMPO=(_F(  TOUT = 'OUI',
                                     DX = 0.,
                                     DY = 0.,
                                     DZ = 0.,),
                                    _F(NOEUD=('NO1','NO3','NO8','NO6','NO13','NO15','NO20','NO18'),
                                       TEMP = 0.),
                                   ),);

RESU0=STAT_NON_LINE(   MODELE=MODELE,
            SOLVEUR=_F( METHODE = 'LDLT'),
                          CHAM_MATER=CHMAT0,
                          EXCIT=_F( CHARGE = CHARHO),
                          COMP_INCR=_F( RELATION = 'KIT_THM',PARM_THETA=1.,
                          RELATION_KIT = ('ELAS', 'LIQU_GAZ_ATM', 'HYDR_UTIL',),
                          ITER_INTE_MAXI = 5),
                          INCREMENT=_F( LIST_INST = LI),
                          NEWTON=_F( MATRICE = 'TANGENTE',
                                  REAC_ITER = 121),
                         CONVERGENCE=_F(
                                     ITER_GLOB_MAXI = 120,
                                     RESI_GLOB_RELA = 1.E-8),
                          ARCHIVAGE=_F(  LIST_INST = ARCHI)
                        )

TEST_RESU(RESU=_F(NUME_ORDRE=1,
                  RESULTAT=RESU0,
                  NOM_CHAM='DEPL',
                  NOEUD='NO1',
                  NOM_CMP='PRE1',
                  VALE_CALC=0.039787482,
                  VALE_REFE=0.039787599999999999,
                  REFERENCE='NON_DEFINI',
                  CRITERE='RELATIF',
                  PRECISION=1.E-2,),
          )

TEST_RESU(RESU=_F(NUME_ORDRE=1,
                  RESULTAT=RESU0,
                  NOM_CHAM='DEPL',
                  NOEUD='NO20',
                  NOM_CMP='PRE1',
                  VALE_CALC=-0.039787482,
                  VALE_REFE=-0.039787599999999999,
                  REFERENCE='NON_DEFINI',
                  CRITERE='RELATIF',
                  PRECISION=1.E-2,),
          )

TEST_RESU(RESU=_F(NUME_ORDRE=2,
                  RESULTAT=RESU0,
                  NOM_CHAM='DEPL',
                  NOEUD='NO1',
                  NOM_CMP='PRE1',
                  VALE_CALC=0.198932343,
                  VALE_REFE=0.19893,
                  REFERENCE='NON_DEFINI',
                  CRITERE='RELATIF',
                  PRECISION=1.E-2,),
          )

TEST_RESU(RESU=_F(NUME_ORDRE=2,
                  RESULTAT=RESU0,
                  NOM_CHAM='DEPL',
                  NOEUD='NO20',
                  NOM_CMP='PRE1',
                  VALE_CALC=-0.198932343,
                  VALE_REFE=-0.19893,
                  REFERENCE='NON_DEFINI',
                  CRITERE='RELATIF',
                  PRECISION=1.E-2,),
          )

TEST_RESU(RESU=_F(NUME_ORDRE=3,
                  RESULTAT=RESU0,
                  NOM_CHAM='DEPL',
                  NOEUD='NO1',
                  NOM_CMP='PRE1',
                  VALE_CALC=0.397855506,
                  VALE_REFE=0.39878599999999997,
                  REFERENCE='NON_DEFINI',
                  CRITERE='RELATIF',
                  PRECISION=1.E-2,),
          )

TEST_RESU(RESU=_F(NUME_ORDRE=3,
                  RESULTAT=RESU0,
                  NOM_CHAM='DEPL',
                  NOEUD='NO20',
                  NOM_CMP='PRE1',
                  VALE_CALC=-0.397855506,
                  VALE_REFE=-0.39878599999999997,
                  REFERENCE='NON_DEFINI',
                  CRITERE='RELATIF',
                  PRECISION=1.E-2,),
          )

TEST_RESU(RESU=_F(NUME_ORDRE=4,
                  RESULTAT=RESU0,
                  NOM_CHAM='DEPL',
                  NOEUD='NO1',
                  NOM_CMP='PRE1',
                  VALE_CALC=1.988734424,
                  VALE_REFE=1.9888999999999999,
                  REFERENCE='NON_DEFINI',
                  CRITERE='RELATIF',
                  PRECISION=1.E-2,),
          )

TEST_RESU(RESU=_F(NUME_ORDRE=4,
                  RESULTAT=RESU0,
                  NOM_CHAM='DEPL',
                  NOEUD='NO20',
                  NOM_CMP='PRE1',
                  VALE_CALC=-1.988734422,
                  VALE_REFE=-1.9888999999999999,
                  REFERENCE='NON_DEFINI',
                  CRITERE='RELATIF',
                  PRECISION=1.E-2,),
          )

TEST_RESU(RESU=_F(NUME_ORDRE=8,
                  RESULTAT=RESU0,
                  NOM_CHAM='DEPL',
                  NOEUD='NO1',
                  NOM_CMP='PRE1',
                  VALE_CALC=192.586178707,
                  VALE_REFE=195.0,
                  REFERENCE='NON_DEFINI',
                  CRITERE='RELATIF',
                  PRECISION=0.02,),
          )

TEST_RESU(RESU=_F(NUME_ORDRE=8,
                  RESULTAT=RESU0,
                  NOM_CHAM='DEPL',
                  NOEUD='NO20',
                  NOM_CMP='PRE1',
                  VALE_CALC=-192.586132906,
                  VALE_REFE=-195.0,
                  REFERENCE='NON_DEFINI',
                  CRITERE='RELATIF',
                  PRECISION=0.02,),
          )

TEST_RESU(RESU=_F(NUME_ORDRE=16,
                  RESULTAT=RESU0,
                  NOM_CHAM='DEPL',
                  NOEUD='NO1',
                  NOM_CMP='PRE1',
                  VALE_CALC= 5.00001555E+03,
                  VALE_REFE=5000.0,
                  REFERENCE='NON_DEFINI',
                  CRITERE='RELATIF',
                  PRECISION=1.E-2,),
          )

TEST_RESU(RESU=_F(NUME_ORDRE=16,
                  RESULTAT=RESU0,
                  NOM_CHAM='DEPL',
                  NOEUD='NO20',
                  NOM_CMP='PRE1',
                  VALE_CALC=-4.99998444E+03,
                  VALE_REFE=-5000.0,
                  REFERENCE='NON_DEFINI',
                  CRITERE='RELATIF',
                  PRECISION=1.E-2,),
          )

FIN()
#
