# MODIF  DATE 29/05/2007   AUTEUR FERNANDES R.FERNANDES 
# ======================================================================
# TITRE CALCUL DE RESATURATION D UNE BO PAR UNE BG SUR UN BI-MATERIAUX
#            CONFIGURATION MANAGEMENT OF EDF VERSION
# ======================================================================
# COPYRIGHT (C) 1991 - 2005  EDF R&D                  WWW.CODE-ASTER.ORG
# THIS PROGRAM IS FREE SOFTWARE; YOU CAN REDISTRIBUTE IT AND/OR MODIFY  
# IT UNDER THE TERMS OF THE GNU GENERAL PUBLIC LICENSE AS PUBLISHED BY  
# THE FREE SOFTWARE FOUNDATION; EITHER VERSION 2 OF THE LICENSE, OR     
# (AT YOUR OPTION) ANY LATER VERSION.                                                    
#                                                                       
# THIS PROGRAM IS DISTRIBUTED IN THE HOPE THAT IT WILL BE USEFUL, BUT   
# WITHOUT ANY WARRANTY; WITHOUT EVEN THE IMPLIED WARRANTY OF            
# MERCHANTABILITY OR FITNESS FOR A PARTICULAR PURPOSE. SEE THE GNU      
# GENERAL PUBLIC LICENSE FOR MORE DETAILS.                              
#                                                                       
# YOU SHOULD HAVE RECEIVED A COPY OF THE GNU GENERAL PUBLIC LICENSE     
# ALONG WITH THIS PROGRAM; IF NOT, WRITE TO EDF R&D CODE_ASTER,         
#    1 AVENUE DU GENERAL DE GAULLE, 92141 CLAMART CEDEX, FRANCE.        
# ======================================================================
#       BO-BG   (CALCUL 3D_HHS) 
# ======================================================================

DEBUT(CODE=_F(NOM='WTNV125B',NIV_PUB_WEB='INTERNET'),);

PRE_GIBI();

MAIL=LIRE_MAILLAGE();

#
#  LISTE DES INSTANTS DE CALCUL
#

LBA=INTE_MAIL_3D(MAILLAGE=MAIL,
               TOUT='OUI',
               DEFI_SEGMENT=_F(NOEUD_ORIG='N1',
                               NOEUD_EXTR='N192',),);

INST1=DEFI_LIST_REEL(DEBUT=0.0,
                     INTERVALLE=(_F(JUSQU_A=1.E7,
                                    NOMBRE=10,),
                                 _F(JUSQU_A=1.E8,
                                    NOMBRE=1,),
                                 _F(JUSQU_A=1.E9,
                                    NOMBRE=9,),),);

MAIL=DEFI_GROUP(reuse =MAIL,
                MAILLAGE=MAIL,
                CREA_GROUP_NO=(_F(GROUP_MA='SURF1',),
                               _F(GROUP_MA='INT_BOBG',),
                               _F(GROUP_MA='BLOCBO',),
                               _F(GROUP_MA='BLOCBG',),
                               _F(GROUP_MA='TOUT',),),);

MODELE=AFFE_MODELE(MAILLAGE=MAIL,
                   AFFE=_F(TOUT='OUI',
                           PHENOMENE='MECANIQUE',
                           MODELISATION='3D_HHS',),);
MAIL=DEFI_GROUP( reuse=MAIL,
               MAILLAGE=MAIL,
               CREA_GROUP_MA=(_F(NOM='ROCHE',
                                     TOUT='OUI'),),
               CREA_GROUP_NO=(_F(NOM='ROCHES',
                                 CRIT_NOEUD='SOMMET',
                                 GROUP_MA='ROCHE'),),)

UN=DEFI_CONSTANTE(VALE=1.0,);

ZERO=DEFI_CONSTANTE(VALE=0.0,);

VISCOLIQ=DEFI_CONSTANTE(VALE=1.E-3,);

VISCOGAZ=DEFI_CONSTANTE(VALE=1.8E-05,);

DVISCOL=DEFI_CONSTANTE(VALE=0.0,);

DVISCOG=DEFI_CONSTANTE(VALE=0.0,);


LI2=DEFI_LIST_REEL(DEBUT=0.0,
                   INTERVALLE=_F(JUSQU_A=1.E9,
                                 PAS=1.E6,),);

LI1=DEFI_LIST_REEL(DEBUT=1.E-5,
                   INTERVALLE=_F(JUSQU_A=1.0,
                                 PAS=0.099999,),);
# PROPRIETES DE LA B.O.


LTBO=DEFI_CONSTANTE(VALE=0.60,);
LSO = FORMULE(NOM_PARA='SAT',VALE='(0.35*SAT)');

LSBO=CALC_FONC_INTERP(FONCTION=LSO,
                        LIST_PARA=LI1,
                        NOM_PARA='SAT',
                        PROL_GAUCHE='LINEAIRE',
                        PROL_DROITE='LINEAIRE',
                        INFO=2,);
DLSBO=DEFI_CONSTANTE(VALE=0.35,);

SL = FORMULE(NOM_PARA='PCAP',VALE='0.99*(1.-PCAP*6.E-9)');

SATUBO=CALC_FONC_INTERP(FONCTION=SL,
                        LIST_PARA=LI2,
                        NOM_PARA='PCAP',
                        PROL_DROITE='CONSTANT',
                        PROL_GAUCHE='CONSTANT',
                        INFO=2,);


DSL = FORMULE(NOM_PARA='PCAP', VALE='-6.E-9*0.99');

DSATBO=CALC_FONC_INTERP(FONCTION=DSL,
                        LIST_PARA=LI2,
                        NOM_PARA='PCAP',
                        PROL_DROITE='CONSTANT',
                        PROL_GAUCHE='CONSTANT',
                        INFO=2,);


PERM = FORMULE(NOM_PARA='SAT',VALE='SAT');

PERM11BO=CALC_FONC_INTERP(FONCTION=PERM,
                          LIST_PARA=LI1,
                          NOM_PARA='SAT',
                          PROL_DROITE='CONSTANT',
                          PROL_GAUCHE='CONSTANT',
                          INFO=2,);


DPERMBO = FORMULE(NOM_PARA='SAT',VALE='1.');

DPR11BO=CALC_FONC_INTERP(FONCTION=DPERMBO,
                         LIST_PARA=LI1,
                          NOM_PARA='SAT',
                         PROL_DROITE='CONSTANT',
                         PROL_GAUCHE='CONSTANT',
                         INFO=2,);


PERM2BO = FORMULE(NOM_PARA='SAT',VALE=' 1.-SAT');

PERM21BO=CALC_FONC_INTERP(FONCTION=PERM2BO,
                          LIST_PARA=LI1,
                          NOM_PARA='SAT',
                          PROL_DROITE='CONSTANT',
                          PROL_GAUCHE='CONSTANT',
                          INFO=2,);


DPERM2BO = FORMULE(NOM_PARA='SAT',VALE=' -1.');

DPR21BO=CALC_FONC_INTERP(FONCTION=DPERM2BO,
                         LIST_PARA=LI1,
                          NOM_PARA='SAT',
                         PROL_DROITE='CONSTANT',
                         PROL_GAUCHE='CONSTANT',
                         INFO=2,);
#
# CONDUCTIVITE THERMIQUE DE LA BO
#


DM8=DEFI_CONSTANTE(VALE=1.E-07,);

KINTBO=DEFI_CONSTANTE(VALE=1.E-20,);

MATERBO=DEFI_MATERIAU(ELAS=_F(E=1.9E+20,
                              NU=0.2,
                              RHO=2670.0,
                              ALPHA=0.,),
                      COMP_THM = 'LIQU_GAZ',
                      THM_LIQU=_F(RHO=1000.0,
                                  UN_SUR_K=5.E-10,
                                  ALPHA=1.E-4,
                                  CP=4180.0,
                                  VISC=VISCOLIQ,
                                  D_VISC_TEMP=DVISCOL,),
                      THM_GAZ=_F(MASS_MOL=0.02896,
                                 CP=1000.0,
                                 VISC=VISCOGAZ,
                                 D_VISC_TEMP=ZERO,),
                      THM_VAPE_GAZ=_F(MASS_MOL=0.018,
                                      CP=1870.0,
                                      VISC=VISCOGAZ,
                                      D_VISC_TEMP=ZERO,),
                      THM_INIT=_F(TEMP=293.0,
                                  PRE1=0.0,
                                  PRE2=1.E5,
                                  PORO=0.35,
                                  PRES_VAPE=2320.0,
                                  DEGR_SATU=0.5742,),
                      THM_DIFFU=_F(R_GAZ=8.315,
                                   RHO=2670.0,
                                   CP=482.0,
                                   BIOT_COEF=1.0,
                                   SATU_PRES=SATUBO,
                                   D_SATU_PRES=DSATBO,
                                   PESA_X=0.0,
                                   PESA_Y=0.0,
                                   PESA_Z=0.0,
                                   PERM_IN=KINTBO,
                                   PERM_LIQU=PERM11BO,
                                   D_PERM_LIQU_SATU=DPR11BO,
                                   PERM_GAZ=PERM21BO,
                                   D_PERM_SATU_GAZ=DPR21BO,
                                   D_PERM_PRES_GAZ=ZERO,
                                   LAMB_T=LTBO,
                                   LAMB_S=LSBO,
                                   D_LB_S=DLSBO,
                                   LAMB_CT=0.728
                                   ),);
# PROPRIETES DE LA B.G.
#

KINTBG=DEFI_CONSTANTE(VALE=1.E-19,);

# CONDUCTIVITE THERMIQUE DE LA BG
#

LTBG=DEFI_CONSTANTE(VALE=0.60,);
LSG = FORMULE(NOM_PARA='SAT',VALE='(0.05*SAT)');

LSBG=CALC_FONC_INTERP(FONCTION=LSG,
                        LIST_PARA=LI1,
                        NOM_PARA='SAT',
                        PROL_GAUCHE='LINEAIRE',
                        PROL_DROITE='LINEAIRE',
                        INFO=2,);
DLSBG=DEFI_CONSTANTE(VALE=0.05,);

MATERBG=DEFI_MATERIAU(ELAS=_F(E=1.9E+20,
                              NU=0.2,
                              RHO=2670.0,
                              ALPHA=0.0,),
                      COMP_THM = 'LIQU_GAZ',
                      THM_LIQU=_F(RHO=1000.0,
                                  UN_SUR_K=5.E-10,
                                  ALPHA=1.E-4,
                                  CP=4180.0,
                                  VISC=VISCOLIQ,
                                  D_VISC_TEMP=DVISCOL,),
                      THM_GAZ=_F(MASS_MOL=0.02896,
                                 CP=1000.0,
                                 VISC=VISCOGAZ,
                                 D_VISC_TEMP=ZERO,),
                      THM_VAPE_GAZ=_F(MASS_MOL=0.018,
                                      CP=1870.0,
                                      VISC=UN,
                                      D_VISC_TEMP=ZERO,),
                      THM_INIT=_F(TEMP=293.0,
                                  PRE1=0.0,
                                  PRE2=1.E5,
                                  PORO=0.05,
                                  PRES_VAPE=2320.0,
                                  DEGR_SATU=0.8118,),
                      THM_DIFFU=_F(R_GAZ=8.315,
                                   RHO=2670.0,
                                   CP=706.0,
                                   BIOT_COEF=1.0,
                                   SATU_PRES=SATUBO,
                                   D_SATU_PRES=DSATBO,
                                   PESA_X=0.0,
                                   PESA_Y=0.0,
                                   PESA_Z=0.0,
                                   PERM_IN=KINTBG,
                                   PERM_LIQU=PERM11BO,
                                   D_PERM_LIQU_SATU=DPR11BO,
                                   PERM_GAZ=PERM21BO,
                                   D_PERM_SATU_GAZ=DPR21BO,
                                   D_PERM_PRES_GAZ=ZERO,
                                   LAMB_T=LTBO,
                                   LAMB_S=LSBO,
                                   D_LB_S=DLSBO,
                                   LAMB_CT=0.728
                                   ),);

CHMAT0=AFFE_MATERIAU(MAILLAGE=MAIL,
                     AFFE=(_F(GROUP_MA='BLOCBO',
                              MATER=MATERBO,),
                           _F(GROUP_MA='BLOCBG',
                              MATER=MATERBG,),),);
#
# AFFECTATION DE L ETAT INITIAL
#


CHAMNO=CREA_CHAMP(MAILLAGE=MAIL,
                    OPERATION='AFFE', 
                    TYPE_CHAM='NOEU_DEPL_R',
                    AFFE=(_F(TOUT='OUI',
                             NOM_CMP='TEMP',
                             VALE=0.0,),
                          _F(GROUP_NO='BLOCBO',
                             NOM_CMP='PRE1',
                             VALE=7.E7,),
                          _F(GROUP_NO='BLOCBG',
                             NOM_CMP='PRE1',
                             VALE=3.E7,),
                          _F(NOEUD=('N186','N187'),
                             NOM_CMP='PRE1',
                             VALE=5.E7,),
                          _F(GROUP_NO='BLOCBO',
                             NOM_CMP='PRE2',
                             VALE=0.0,),
                          _F(GROUP_NO='BLOCBG',
                             NOM_CMP='PRE2',
                             VALE=0.0,),),);

CALEXT=AFFE_CHAR_MECA(MODELE=MODELE,
                      DDL_IMPO=(_F(GROUP_NO='ROCHES',
                                   PRE2=0.0,),),);


SIGINIT=CREA_CHAMP(MAILLAGE=MAIL,
                   OPERATION='AFFE', 
                   TYPE_CHAM='CART_SIEF_R',
                   AFFE=(_F(GROUP_MA='BLOCBO',
                            NOM_CMP=
                            ('M11','FH11X','FH11Y','FH11Z',
                             'M12','FH12X','FH12Y','FH12Z',
                             'M21','FH21X','FH21Y','FH21Z',),
                            VALE=
                            ( 0.0, 0.0, 0.0, 0.0,
                              0.0, 0.0, 0.0, 0.0,
                              0.0, 0.0, 0.0, 0.0,),),
                         _F(GROUP_MA='BLOCBG',
                            NOM_CMP=
                            ('M11','FH11X','FH11Y','FH11Z',
                             'M12','FH12X','FH12Y','FH12Z',
                             'M21','FH21X','FH21Y','FH21Z',),
                            VALE=
                            (0.0, 0.0, 0.0, 0.0,
                             0.0, 0.0, 0.0, 0.0,
                             0.0, 0.0, 0.0, 0.0,),),),);

U0=STAT_NON_LINE(MODELE=MODELE,
                 CHAM_MATER=CHMAT0,
                 EXCIT=_F(CHARGE=CALEXT,),
                 COMP_INCR=_F(RELATION='KIT_HH',PARM_THETA=0.57,
                              ITER_INTE_MAXI=5,
                              RELATION_KIT=('LIQU_GAZ','HYDR_UTIL'),),
                 ETAT_INIT=_F(DEPL=CHAMNO,
                              SIGM=SIGINIT
                 ),
                 INCREMENT=_F(LIST_INST=INST1,),
                 NEWTON=_F(MATRICE='TANGENTE',
                           REAC_ITER=1,),
                 CONVERGENCE=_F(RESI_GLOB_MAXI=1.E-05,
                                ITER_GLOB_MAXI=150,),
                 ARCHIVAGE=_F(PAS_ARCH=1,),);

U0=CALC_ELEM(reuse =U0,
             TOUT_ORDRE='OUI',
             OPTION=('SIEF_ELNO_ELGA','VARI_ELNO_ELGA'),
             RESULTAT=U0,);

TRB=POST_RELEVE_T(ACTION=_F(INTITULE='DEPL',
                            CHEMIN=LBA,
                            RESULTAT=U0,
                            NOM_CHAM='DEPL',
                            NUME_ORDRE=(1,10,11,20),
                            NOM_CMP=('PRE1'),
                            OPERATION='EXTRACTION',),);

TRB11=POST_RELEVE_T(ACTION=_F(INTITULE='DEPL',
                            CHEMIN=LBA,
                            RESULTAT=U0,
                            NOM_CHAM='DEPL',
                            NUME_ORDRE=(11),
                            NOM_CMP=('PRE1'),
                            OPERATION='EXTRACTION',),);

TRB2=POST_RELEVE_T(ACTION=_F(INTITULE='CONT',
                             CHEMIN=LBA,
                             RESULTAT=U0,
                             NOM_CHAM='SIEF_ELNO_ELGA',
                             TOUT_ORDRE='OUI',
                             NOM_CMP=('M11','FH11X','FH11Y','FH11Z'),
                             OPERATION='EXTRACTION',),);

ZTRB=POST_RELEVE_T(ACTION=_F(INTITULE='DEPL',
                             NOEUD=('N203','N199','N10','N186','N178','N174','N166'),
                             RESULTAT=U0,
                             NOM_CHAM='DEPL',
                             TOUT_ORDRE='OUI',
                             NOM_CMP=('PRE1'),
                             OPERATION='EXTRACTION',),);

ZTRB2=POST_RELEVE_T(ACTION=_F(INTITULE='DEPL',
                             NOEUD=('N203','N199','N10','N186','N178','N174','N166'),
                              RESULTAT=U0,
                              NOM_CHAM='SIEF_ELNO_ELGA',
                              TOUT_ORDRE='OUI',
                              NOM_CMP=('M11','FH11X','M21','FH21X','FH21Z'),
                              OPERATION='EXTRACTION',),);


ZTRB3=POST_RELEVE_T(ACTION=_F(INTITULE='DEPL',
                             NOEUD=('N203','N199','N10','N186','N178','N174','N166'),
                              RESULTAT=U0,
                              NOM_CHAM='VARI_ELNO_ELGA',
                              TOUT_ORDRE='OUI',
                              NOM_CMP=('V2'),
                              OPERATION='EXTRACTION',),);
           
TEST_RESU(RESU=_F(RESULTAT=U0,
                  NUME_ORDRE=1,
                  NOM_CHAM='DEPL',
                  NOM_CMP='PRE1',
                  NOEUD='N203',
                  VALE=3.7574E+07,
                  CRITERE='RELATIF',
                  PRECISION=1E-3,
                  VERSION = '7.2.26',
                  REFERENCE='NON_REGRESSION',),);
TEST_RESU(RESU=_F(RESULTAT=U0,
                  NUME_ORDRE=1,
                  NOM_CHAM='DEPL',
                  NOM_CMP='PRE1',
                  NOEUD='N166',
                  VALE=6.720E+07,
                  CRITERE='RELATIF',
                  PRECISION=1E-3,
                  VERSION = '7.2.26',
                  REFERENCE='NON_REGRESSION',),);
TEST_RESU(RESU=_F(RESULTAT=U0,
                  NUME_ORDRE=10,
                  NOM_CHAM='DEPL',
                  NOM_CMP='PRE1',
                  NOEUD='N203',
                  VALE=4.5653E+07,
                  CRITERE='RELATIF',
                  PRECISION=1E-3,
                  VERSION = '7.2.26',
                  REFERENCE='NON_REGRESSION',),);
TEST_RESU(RESU=_F(RESULTAT=U0,
                  NUME_ORDRE=10,
                  NOM_CHAM='DEPL',
                  NOM_CMP='PRE1',
                  NOEUD='N166',
                  VALE=5.3575E+07,
                  CRITERE='RELATIF',
                  PRECISION=1E-3,
                  VERSION = '7.2.26',
                  REFERENCE='NON_REGRESSION',),);
TEST_RESU(RESU=_F(RESULTAT=U0,
                  NUME_ORDRE=11,
                  NOM_CHAM='DEPL',
                  NOM_CMP='PRE1',
                  NOEUD='N203',
                  VALE=4.6916E+07,
                  CRITERE='RELATIF',
                  PRECISION=1E-3,
                  VERSION = '7.2.26',
                  REFERENCE='NON_REGRESSION',),);
TEST_RESU(RESU=_F(RESULTAT=U0,
                  NUME_ORDRE=11,
                  NOM_CHAM='DEPL',
                  NOM_CMP='PRE1',
                  NOEUD='N166',
                  VALE=4.7538E+07,
                  CRITERE='RELATIF',
                  PRECISION=1E-4,
                  VERSION = '7.2.26',
                  REFERENCE='NON_REGRESSION',),);
TEST_RESU(RESU=_F(RESULTAT=U0,
                  NUME_ORDRE=20,
                  NOM_CHAM='DEPL',
                  NOM_CMP='PRE1',
                  NOEUD='N203',
                  VALE=4.50655E+07,
                  CRITERE='RELATIF',
                  PRECISION=1E-4,
                  VERSION = '7.2.26',
                  REFERENCE='NON_REGRESSION',),);
TEST_RESU(RESU=_F(RESULTAT=U0,
                  NUME_ORDRE=20,
                  NOM_CHAM='DEPL',
                  NOM_CMP='PRE1',
                  NOEUD='N166',
                  VALE=4.5075E+07,
                  CRITERE='RELATIF',
                  PRECISION=1E-4,
                  VERSION = '7.2.26',
                  REFERENCE='NON_REGRESSION',),);

FIN();
