#
# TITRE    ESSAI TRIAXIAL NON DRAINE AVEC LA LOI DE HUJEUX
#            CONFIGURATION MANAGEMENT OF EDF VERSION
# ======================================================================
# COPYRIGHT (C) 1991 - 2013  EDF R&D                  WWW.CODE-ASTER.ORG
# THIS PROGRAM IS FREE SOFTWARE; YOU CAN REDISTRIBUTE IT AND/OR MODIFY
# IT UNDER THE TERMS OF THE GNU GENERAL PUBLIC LICENSE AS PUBLISHED BY
# THE FREE SOFTWARE FOUNDATION; EITHER VERSION 2 OF THE LICENSE, OR
# (AT YOUR OPTION) ANY LATER VERSION.
#
# THIS PROGRAM IS DISTRIBUTED IN THE HOPE THAT IT WILL BE USEFUL, BUT
# WITHOUT ANY WARRANTY; WITHOUT EVEN THE IMPLIED WARRANTY OF
# MERCHANTABILITY OR FITNESS FOR A PARTICULAR PURPOSE. SEE THE GNU
# GENERAL PUBLIC LICENSE FOR MORE DETAILS.
#
# YOU SHOULD HAVE RECEIVED A COPY OF THE GNU GENERAL PUBLIC LICENSE
# ALONG WITH THIS PROGRAM; IF NOT, WRITE TO EDF R&D CODE_ASTER,
#    1 AVENUE DU GENERAL DE GAULLE, 92141 CLAMART CEDEX, FRANCE.
# ======================================================================
#                         SUR SABLE D'HOSTUN
#          ===============================================


DEBUT(CODE=_F(NOM='WTNV133B',NIV_PUB_WEB='INTERNET',VISU_EFICAS='NON'),DEBUG=_F(SDVERI='NON'))
# SDVERI='NON' car la verification est trop couteuse en CPU
#PRE_GIBI();

# proprietes hydrauliques
poro = 0.425   ;  # porosite
rhol = 1000. ;   # masse volumique du fluide
kin  = 1.E-8 ;   # permeabilite intrinsinque
k_w  = 1.E10 ;   # module de compressibilite de l'eau
#UNSURK = 1/k_w ;
UNSURK = 1.E-12 ;
visco  = 0.001   ;
dvisco = 0.0     ;
k_int    = DEFI_CONSTANTE(VALE=kin)   ;
viscoliq = DEFI_CONSTANTE(VALE=visco) ;
dviscoli = DEFI_CONSTANTE(VALE=dvisco);


# modules mecaniques [Pa]
K = 516.2E6 ;
G = 238.2E6 ;
# =>
YOUNG   = 9.*K*G /(3.*K+G)        ;
POISSON = (3.*K-2.*G) /(6.*K+2.*G);

degr  = pi /180.
M     = sin(degr*31.)
pcr   = 361.E5*exp(1.) /2.
lambd = 0.1 /(1.-poro)
kapa  = lambd /2.

print 'young=',YOUNG,' /// nu=',POISSON

# pression de preconsolidation [en Pa]
PCR = -1.E6 ;
PCO =  2.E5 ;


#*******************************************************************
#    MAILLAGE + MODELE
#*******************************************************************
MAILLAGE=LIRE_MAILLAGE(FORMAT='MED', );

MODELE=AFFE_MODELE(MAILLAGE=MAILLAGE,
                   AFFE=_F(TOUT         = 'OUI',
                           PHENOMENE    = 'MECANIQUE',
                           MODELISATION = '3D_HM'),
                           INFO         = 2);

MAILLAGE=MODI_MAILLAGE(reuse    = MAILLAGE,
                       MAILLAGE = MAILLAGE,
                       ORIE_PEAU_3D=
                            _F(GROUP_MA=('DEVANT','DROIT','ARRIERE',
                                         'GAUCHE','BAS','HAUT','APPUI',
                                         'COTE')),
                       INFO=1);


#*******************************************************************
#    INCREMENTS DE TEMPS
#*******************************************************************
TEMPS0=DEFI_LIST_REEL(DEBUT=-1.,
                      INTERVALLE=(_F(JUSQU_A =  0., NOMBRE = 1),));

TEMPS1=DEFI_LIST_REEL(DEBUT=0.,
                      INTERVALLE=(_F(JUSQU_A = 1.,  NOMBRE = 10),
                                  _F(JUSQU_A = 5.,  NOMBRE = 40),
                                  _F(JUSQU_A = 10., NOMBRE = 50),));

#*******************************************************************
#    MATERIAU : SOL
#*******************************************************************
SOL0=DEFI_MATERIAU(ELAS=_F(E=YOUNG, NU=POISSON, RHO=2500., ALPHA=0.),
                  HUJEUX=_F(N        = 0.4,
                            BETA     = 24.,
                            D        = 2.5,
                            B        = 0.2,
                            PHI      = 33.,
                            ANGDIL   = 33.,
                            PCO      = -1.E6,
                            PREF     = -1.E6,
                            AMON     = 0.008,
                            ACYC     = 0.0001,
                            CMON     = 0.2,
                            CCYC     = 0.1,
                            RD_ELA   = 0.005,
                            RI_ELA   = 0.001,
                            RHYS     = 0.05,
                            RMOB     = 0.9,
                            XM       = 1.,
                            RD_CYC   = 0.005,
                            RI_CYC   = 0.001,
                            DILA     = 1.0, ),
                   COMP_THM='LIQU_SATU',
                   THM_INIT=_F(PRE1 = 0.,
                               PORO = poro),
                   THM_DIFFU=_F(RHO       = rhol,
                                BIOT_COEF = 1.,
                                PESA_X    = 0.,
                                PESA_Y    = 0.,
                                PESA_Z    = 0.,
                                PERM_IN   = k_int),
                   THM_LIQU=_F(RHO         = rhol,
                               UN_SUR_K    = UNSURK,
                               VISC        = viscoliq,
                               D_VISC_TEMP = dviscoli));

CHMAT0=AFFE_MATERIAU(MAILLAGE=MAILLAGE,
                    AFFE=_F(TOUT='OUI', MATER=SOL0));


#****************************************************************
#    CHARGEMENT MECANIQUE : FORCE DE COMPRESSION + DDL IMPOSES
#****************************************************************
CHAR_U1=AFFE_CHAR_MECA(MODELE=MODELE,
                       PRES_REP=_F(GROUP_MA='COTE',
                                   PRES = 1.));

CHAR_U2=AFFE_CHAR_MECA(MODELE=MODELE,
                       PRES_REP=_F(GROUP_MA='APPUI',
                                   PRES = 1.));

CHAR_U3=AFFE_CHAR_MECA(MODELE=MODELE,
                       FACE_IMPO=_F(GROUP_MA='APPUI',DZ = -1.));

DEPL_1=AFFE_CHAR_MECA(MODELE=MODELE,
                      FACE_IMPO=(_F(GROUP_MA='BAS',   DZ = 0.),
                                 _F(GROUP_MA='GAUCHE',DX = 0.),
                                 _F(GROUP_MA='DEVANT',DY = 0.)));


#*****************************************************************
#    CHARGEMENT HYDRAULIQUE :
#    TRIAXIAL NON DRAINE => FLUX NUL SUR TOUTES LES FACES
#                           (realise par defaut)
#*****************************************************************
PRE0=AFFE_CHAR_MECA(MODELE=MODELE,
                    DDL_IMPO=_F(GROUP_MA='ECHAN',PRE1 = 0.));


COEF0=DEFI_FONCTION(NOM_PARA='INST',
                    PROL_DROITE='CONSTANT',
                    VALE=(-1.0, 0.0,
                           0.0, PCO, ));

# ---- premier chargement isotrope en elastique jusqu'a 200kPa
U0M=STAT_NON_LINE(MODELE    = MODELE,
                 CHAM_MATER = CHMAT0,
                 EXCIT=(_F(CHARGE    = CHAR_U1,
                           FONC_MULT = COEF0),
                        _F(CHARGE    = CHAR_U2,
                           FONC_MULT = COEF0),
                        _F(CHARGE    = DEPL_1),
                        _F(CHARGE    = PRE0)),
                 COMP_INCR=_F(RELATION     = 'KIT_HM',
                              RELATION_KIT = ('ELAS','LIQU_SATU','HYDR_UTIL')),
                 CONVERGENCE=_F(RESI_GLOB_RELA = 1.E-6,
                                ITER_GLOB_MAXI = 50),
                 INCREMENT=_F(LIST_INST = TEMPS0,
                              INST_FIN  = 0.));

SIG0=CREA_CHAMP(INFO=2,
                TYPE_CHAM='ELGA_SIEF_R',
                OPERATION='EXTR',
                RESULTAT=U0M,
                NOM_CHAM='SIEF_ELGA',
                INST=0.0,);

SOL=DEFI_MATERIAU(ELAS=_F(E=YOUNG, NU=POISSON, RHO=2500., ALPHA=0.),
                  HUJEUX=_F(N        = 0.4,
                            BETA     = 24.,
                            D        = 2.5,
                            B        = 0.2,
                            PHI      = 33.,
                            ANGDIL   = 33.,
                            PCO      = -1.E6,
                            PREF     = -1.E6,
                            AMON     = 0.008,
                            ACYC     = 0.0001,
                            CMON     = 0.2,
                            CCYC     = 0.1,
                            RD_ELA   = 0.005,
                            RI_ELA   = 0.001,
                            RHYS     = 0.05,
                            RMOB     = 0.9,
                            XM       = 1.,
                            RD_CYC   = 0.005,
                            RI_CYC   = 0.001,
                            DILA     = 1.0, ),
                   COMP_THM='LIQU_SATU',
                   THM_INIT=_F(PRE1 = 0.,
                               PORO = poro),
                   THM_DIFFU=_F(RHO       = rhol,
                                BIOT_COEF = 1.,
                                PESA_X    = 0.,
                                PESA_Y    = 0.,
                                PESA_Z    = 0.,
                                PERM_IN   = k_int),
                   THM_LIQU=_F(RHO         = rhol,
                               UN_SUR_K    = UNSURK,
                               VISC        = viscoliq,
                               D_VISC_TEMP = dviscoli));

CHMAT=AFFE_MATERIAU(MAILLAGE=MAILLAGE,
                    AFFE=_F(TOUT='OUI', MATER=SOL));

COEF1=DEFI_FONCTION(NOM_PARA    = 'INST',
                    PROL_DROITE = 'CONSTANT',
                    VALE=( 0.0, PCO,
                          10.0, PCO,));

COEF3=DEFI_FONCTION(NOM_PARA='INST',
                    PROL_DROITE='CONSTANT',
                    VALE=( 0.0, 0.00,
                          10.0, 0.02,));

#***********************************************************************
#    ESSAI TRIAXIAL NON DRAINE
#***********************************************************************
U1=STAT_NON_LINE(MODELE=MODELE,
                 CHAM_MATER=CHMAT,
                 EXCIT=(_F(CHARGE     = CHAR_U1,
                           FONC_MULT  = COEF1),
                        _F(CHARGE     = CHAR_U3,
                           TYPE_CHARGE='DIDI',
                           FONC_MULT  = COEF3),
                        _F(CHARGE     = DEPL_1)),
                 ETAT_INIT=_F(SIGM = SIG0,),
                 COMP_INCR=_F(RELATION       = 'KIT_HM',
                              RELATION_KIT   = ('HUJEUX',
                                                'LIQU_SATU','HYDR_UTIL'),
                              RESI_INTE_RELA = 1.E-8,
                              ALGO_INTE='NEWTON',
                              ITER_INTE_MAXI = 20,
                              ITER_INTE_PAS  = 10),
                 NEWTON=_F(MATRICE   = 'TANGENTE',
                           REAC_ITER = 1),
                 CONVERGENCE=_F(RESI_GLOB_RELA = 1.E-6,
                                ITER_GLOB_MAXI = 20),
                 ARCHIVAGE=_F(LIST_INST    = TEMPS1),
                 INCREMENT=_F(LIST_INST    = TEMPS1,
                              INST_INIT    = 0.0,
                              INST_FIN     = 10.));


#-------------------------
#    TEST_RESU AU POINT C
#-------------------------

U1=CALC_CHAMP(reuse=U1,
              CONTRAINTE=('SIGM_ELNO'),
              VARI_INTERNE=('VARI_ELNO'),
              DEFORMATION=('EPSI_ELNO'),
              CRITERES=('SIEQ_ELGA','SIEQ_ELNO','EPEQ_ELGA','EPEQ_ELNO'),
              RESULTAT=U1,);


U1=CALC_CHAMP(reuse      = U1,

           CONTRAINTE='SIGM_NOEU',VARI_INTERNE='VARI_NOEU',DEFORMATION='EPSI_NOEU',
           RESULTAT   = U1);


TAB_SIG=POST_RELEVE_T(ACTION=_F(INTITULE = 'SIGM_NOEU',
                                GROUP_NO = 'C',
                                RESULTAT = U1,
                                NOM_CHAM = 'SIGM_NOEU',
                                INVARIANT = 'OUI',
                                OPERATION= 'EXTRACTION'));

TAB_VARI=POST_RELEVE_T(ACTION=_F(INTITULE= 'VARI_NOEU',
                                GROUP_NO = 'C',
                                RESULTAT = U1,
                                NOM_CHAM = 'VARI_NOEU',
                                NOM_CMP  = ('V1','V4','V8','V23','V32'),
                                OPERATION= 'EXTRACTION'));


TAB_EPZZ=POST_RELEVE_T(ACTION=_F(INTITULE = 'EPSI_NOEU',
                                GROUP_NO = 'C',
                                RESULTAT = U1,
                                NOM_CHAM = 'EPSI_NOEU',
                                NOM_CMP  = 'EPZZ',
                                OPERATION= 'EXTRACTION'));


TAB_SIG=CALC_TABLE(reuse=TAB_SIG,
                   TABLE=TAB_SIG,
                   ACTION=_F(OPERATION='COMB',
                             TABLE=TAB_EPZZ,
                             NOM_PARA='INST'));

TAB_VARI=CALC_TABLE(reuse=TAB_VARI,
                    TABLE=TAB_VARI,
                    ACTION=_F(OPERATION='COMB',
                              TABLE=TAB_EPZZ,
                              NOM_PARA='INST'));



# TEST DE LA NORME DU DEVIATEUR DES CONTRAINTES PAR RAPPORT AUX REFERENCES LAWYER
TEST_TABLE(CRITERE='RELATIF',
           REFERENCE='SOURCE_EXTERNE',
           PRECISION=0.029999999999999999,
           VALE_CALC= 1.0051594334957E+05,
           VALE_REFE=101528,
           NOM_PARA='VMIS',
           TABLE=TAB_SIG,
           FILTRE=_F(CRITERE='ABSOLU',
                     PRECISION=9.0000000000000006E-05,
                     NOM_PARA='EPZZ',
                     VALE=-1.E-3,),
           )

TEST_TABLE(CRITERE='RELATIF',
           REFERENCE='SOURCE_EXTERNE',
           PRECISION=0.02,
           VALE_CALC= 1.335694579124E+05,
           VALE_REFE=134319,
           NOM_PARA='VMIS',
           TABLE=TAB_SIG,
           FILTRE=_F(CRITERE='ABSOLU',
                     PRECISION=9.0000000000000006E-05,
                     NOM_PARA='EPZZ',
                     VALE=-2.E-3,),
           )

TEST_TABLE(CRITERE='RELATIF',
           REFERENCE='SOURCE_EXTERNE',
           PRECISION=1.E-2,
           VALE_CALC= 1.8038533751952E+05,
           VALE_REFE=180822,
           NOM_PARA='VMIS',
           TABLE=TAB_SIG,
           FILTRE=_F(CRITERE='ABSOLU',
                     PRECISION=9.0000000000000006E-05,
                     NOM_PARA='EPZZ',
                     VALE=-5.0000000000000001E-3,),
           )

TEST_TABLE(CRITERE='RELATIF',
           REFERENCE='SOURCE_EXTERNE',
           PRECISION=1.E-2,
           VALE_CALC= 2.1359943777511E+05,
           VALE_REFE=213879,
           NOM_PARA='VMIS',
           TABLE=TAB_SIG,
           FILTRE=_F(CRITERE='ABSOLU',
                     PRECISION=9.9999999999999995E-07,
                     NOM_PARA='EPZZ',
                     VALE=-1.E-2,),
           )

TEST_TABLE(CRITERE='RELATIF',
           REFERENCE='SOURCE_EXTERNE',
           PRECISION=1.E-2,
           VALE_CALC= 2.4925267572793E+05,
           VALE_REFE=249468,
           NOM_PARA='VMIS',
           TABLE=TAB_SIG,
           FILTRE=_F(CRITERE='ABSOLU',
                     PRECISION=9.9999999999999995E-07,
                     NOM_PARA='EPZZ',
                     VALE=-0.02,),
           )

# TEST DE LA TRACE DE SIGMA PAR RAPPORT AUX REFERENCES LAWYER
TEST_TABLE(CRITERE='RELATIF',
           REFERENCE='SOURCE_EXTERNE',
           PRECISION=1.E-2,
           VALE_CALC=-5.88897637151E+05,
           VALE_REFE=-588871,
           NOM_PARA='TRACE',
           TABLE=TAB_SIG,
           FILTRE=_F(CRITERE='ABSOLU',
                     PRECISION=9.0000000000000006E-05,
                     NOM_PARA='EPZZ',
                     VALE=-1.E-3,),
           )

TEST_TABLE(CRITERE='RELATIF',
           REFERENCE='SOURCE_EXTERNE',
           PRECISION=1.E-2,
           VALE_CALC=-5.8234583513059E+05,
           VALE_REFE=-582309,
           NOM_PARA='TRACE',
           TABLE=TAB_SIG,
           FILTRE=_F(CRITERE='ABSOLU',
                     PRECISION=9.0000000000000006E-05,
                     NOM_PARA='EPZZ',
                     VALE=-2.E-3,),
           )

TEST_TABLE(CRITERE='RELATIF',
           REFERENCE='SOURCE_EXTERNE',
           PRECISION=1.E-2,
           VALE_CALC=-5.6376359157595E+05,
           VALE_REFE=-563759,
           NOM_PARA='TRACE',
           TABLE=TAB_SIG,
           FILTRE=_F(CRITERE='ABSOLU',
                     PRECISION=9.0000000000000006E-05,
                     NOM_PARA='EPZZ',
                     VALE=-5.0000000000000001E-3,),
           )

TEST_TABLE(CRITERE='RELATIF',
           REFERENCE='SOURCE_EXTERNE',
           PRECISION=1.E-2,
           VALE_CALC=-5.4382478363578E+05,
           VALE_REFE=-543905,
           NOM_PARA='TRACE',
           TABLE=TAB_SIG,
           FILTRE=_F(CRITERE='ABSOLU',
                     PRECISION=9.9999999999999995E-07,
                     NOM_PARA='EPZZ',
                     VALE=-1.E-2,),
           )

TEST_TABLE(CRITERE='RELATIF',
           REFERENCE='SOURCE_EXTERNE',
           PRECISION=1.E-2,
           VALE_CALC=-5.4399514568383E+05,
           VALE_REFE=-544216,
           NOM_PARA='TRACE',
           TABLE=TAB_SIG,
           FILTRE=_F(CRITERE='ABSOLU',
                     PRECISION=9.9999999999999995E-07,
                     NOM_PARA='EPZZ',
                     VALE=-0.02,),
           )

# TEST DU COEF D ECROUISSAGE DEVIATOIRE PAR RAPPORT AUX REFERENCES LAWYER
TEST_TABLE(CRITERE='RELATIF',
           REFERENCE='SOURCE_EXTERNE',
           PRECISION=0.029999999999999999,
           VALE_CALC=0.33080223485127,
           VALE_REFE=0.33400000000000002,
           NOM_PARA='V1',
           TABLE=TAB_VARI,
           FILTRE=_F(CRITERE='ABSOLU',
                     PRECISION=9.0000000000000006E-05,
                     NOM_PARA='EPZZ',
                     VALE=-1.E-3,),
           )

TEST_TABLE(CRITERE='RELATIF',
           REFERENCE='SOURCE_EXTERNE',
           PRECISION=0.02,
           VALE_CALC=0.43384115588795,
           VALE_REFE=0.436,
           NOM_PARA='V1',
           TABLE=TAB_VARI,
           FILTRE=_F(CRITERE='ABSOLU',
                     PRECISION=9.0000000000000006E-05,
                     NOM_PARA='EPZZ',
                     VALE=-2.E-3,),
           )

TEST_TABLE(CRITERE='RELATIF',
           REFERENCE='SOURCE_EXTERNE',
           PRECISION=1.E-2,
           VALE_CALC=0.58218869256138,
           VALE_REFE=0.58299999999999996,
           NOM_PARA='V1',
           TABLE=TAB_VARI,
           FILTRE=_F(CRITERE='ABSOLU',
                     PRECISION=9.0000000000000006E-05,
                     NOM_PARA='EPZZ',
                     VALE=-5.0000000000000001E-3,),
           )

TEST_TABLE(CRITERE='RELATIF',
           REFERENCE='SOURCE_EXTERNE',
           PRECISION=1.E-2,
           VALE_CALC=0.69231006746485,
           VALE_REFE=0.69299999999999995,
           NOM_PARA='V1',
           TABLE=TAB_VARI,
           FILTRE=_F(CRITERE='ABSOLU',
                     PRECISION=9.9999999999999995E-07,
                     NOM_PARA='EPZZ',
                     VALE=-1.E-2,),
           )

TEST_TABLE(CRITERE='RELATIF',
           REFERENCE='SOURCE_EXTERNE',
           PRECISION=1.E-2,
           VALE_CALC=0.78942204885917,
           VALE_REFE=0.79000000000000004,
           NOM_PARA='V1',
           TABLE=TAB_VARI,
           FILTRE=_F(CRITERE='ABSOLU',
                     PRECISION=9.9999999999999995E-07,
                     NOM_PARA='EPZZ',
                     VALE=-0.02,),
           )

# TEST DU COEF D ECROUISSAGE ISOTROPE CYCLIQUE PAR RAPPORT AUX REFERENCES LAWYER
TEST_TABLE(CRITERE='RELATIF',
           REFERENCE='SOURCE_EXTERNE',
           PRECISION=1.E-2,
           VALE_CALC= 1.5061664217693E-03,
           VALE_REFE=1.5100000000000001E-3,
           NOM_PARA='V8',
           TABLE=TAB_VARI,
           FILTRE=_F(CRITERE='ABSOLU',
                     PRECISION=9.0000000000000006E-05,
                     NOM_PARA='EPZZ',
                     VALE=-1.E-3,),
           )

TEST_TABLE(CRITERE='RELATIF',
           REFERENCE='SOURCE_EXTERNE',
           PRECISION=1.E-2,
           VALE_CALC= 2.3946121209476E-03,
           VALE_REFE=2.3999999999999998E-3,
           NOM_PARA='V8',
           TABLE=TAB_VARI,
           FILTRE=_F(CRITERE='ABSOLU',
                     PRECISION=9.0000000000000006E-05,
                     NOM_PARA='EPZZ',
                     VALE=-2.E-3,),
           )

TEST_TABLE(CRITERE='RELATIF',
           REFERENCE='SOURCE_EXTERNE',
           PRECISION=1.E-2,
           VALE_CALC= 4.9129047206441E-03,
           VALE_REFE=4.9100000000000003E-3,
           NOM_PARA='V8',
           TABLE=TAB_VARI,
           FILTRE=_F(CRITERE='ABSOLU',
                     PRECISION=9.0000000000000006E-05,
                     NOM_PARA='EPZZ',
                     VALE=-5.0000000000000001E-3,),
           )

TEST_TABLE(CRITERE='RELATIF',
           REFERENCE='SOURCE_EXTERNE',
           PRECISION=1.E-2,
           VALE_CALC= 7.6125321348687E-03,
           VALE_REFE=7.6E-3,
           NOM_PARA='V8',
           TABLE=TAB_VARI,
           FILTRE=_F(CRITERE='ABSOLU',
                     PRECISION=9.9999999999999995E-07,
                     NOM_PARA='EPZZ',
                     VALE=-1.E-2,),
           )

TEST_TABLE(CRITERE='RELATIF',
           REFERENCE='SOURCE_EXTERNE',
           PRECISION=0.02,
           VALE_CALC= 1.1523601069296E-03,
           VALE_REFE=1.16E-3,
           NOM_PARA='V8',
           TABLE=TAB_VARI,
           FILTRE=_F(CRITERE='ABSOLU',
                     PRECISION=9.9999999999999995E-07,
                     NOM_PARA='EPZZ',
                     VALE=-0.02,),
           )

# TEST SUR LA DEFORMATION VOLUMIQUE PLASTIQUE AUX REFERENCES LAWYER
TEST_TABLE(CRITERE='RELATIF',
           REFERENCE='SOURCE_EXTERNE',
           PRECISION=0.080000000000000002,
           VALE_CALC=-1.3717453155817E-05,
           VALE_REFE=-1.3699999999999999E-05,
           NOM_PARA='V23',
           TABLE=TAB_VARI,
           FILTRE=_F(CRITERE='ABSOLU',
                     PRECISION=9.0000000000000006E-05,
                     NOM_PARA='EPZZ',
                     VALE=-1.E-3,),
           )

TEST_TABLE(CRITERE='RELATIF',
           REFERENCE='SOURCE_EXTERNE',
           PRECISION=0.059999999999999998,
           VALE_CALC=-2.185593689705E-05,
           VALE_REFE=-2.19E-05,
           NOM_PARA='V23',
           TABLE=TAB_VARI,
           FILTRE=_F(CRITERE='ABSOLU',
                     PRECISION=9.0000000000000006E-05,
                     NOM_PARA='EPZZ',
                     VALE=-2.E-3,),
           )

TEST_TABLE(CRITERE='RELATIF',
           REFERENCE='SOURCE_EXTERNE',
           PRECISION=0.029999999999999999,
           VALE_CALC=-4.513317577788E-05,
           VALE_REFE=-4.5099999999999998E-05,
           NOM_PARA='V23',
           TABLE=TAB_VARI,
           FILTRE=_F(CRITERE='ABSOLU',
                     PRECISION=9.0000000000000006E-05,
                     NOM_PARA='EPZZ',
                     VALE=-5.0000000000000001E-3,),
           )

TEST_TABLE(CRITERE='RELATIF',
           REFERENCE='SOURCE_EXTERNE',
           PRECISION=0.02,
           VALE_CALC=-7.0450771486282E-05,
           VALE_REFE=-7.0300000000000001E-05,
           NOM_PARA='V23',
           TABLE=TAB_VARI,
           FILTRE=_F(CRITERE='ABSOLU',
                     PRECISION=9.9999999999999995E-07,
                     NOM_PARA='EPZZ',
                     VALE=-1.E-2,),
           )

TEST_TABLE(CRITERE='RELATIF',
           REFERENCE='SOURCE_EXTERNE',
           PRECISION=0.02,
           VALE_CALC=-7.023814262424E-05,
           VALE_REFE=-6.9999999999999994E-05,
           NOM_PARA='V23',
           TABLE=TAB_VARI,
           FILTRE=_F(CRITERE='ABSOLU',
                     PRECISION=9.9999999999999995E-07,
                     NOM_PARA='EPZZ',
                     VALE=-0.02,),
           )

FIN();
