# TITRE ESSAI HYDROSTATIQUE SUIVI D UN TRIAXIAL A SUCCION FIXE
# ======================================================================
# COPYRIGHT (C) 1991 - 2016  EDF R&D                  WWW.CODE-ASTER.ORG
# THIS PROGRAM IS FREE SOFTWARE; YOU CAN REDISTRIBUTE IT AND/OR MODIFY
# IT UNDER THE TERMS OF THE GNU GENERAL PUBLIC LICENSE AS PUBLISHED BY
# THE FREE SOFTWARE FOUNDATION; EITHER VERSION 2 OF THE LICENSE, OR
# (AT YOUR OPTION) ANY LATER VERSION.
#
# THIS PROGRAM IS DISTRIBUTED IN THE HOPE THAT IT WILL BE USEFUL, BUT
# WITHOUT ANY WARRANTY; WITHOUT EVEN THE IMPLIED WARRANTY OF
# MERCHANTABILITY OR FITNESS FOR A PARTICULAR PURPOSE. SEE THE GNU
# GENERAL PUBLIC LICENSE FOR MORE DETAILS.
#
# YOU SHOULD HAVE RECEIVED A COPY OF THE GNU GENERAL PUBLIC LICENSE
# ALONG WITH THIS PROGRAM; IF NOT, WRITE TO EDF R&D CODE_ASTER,
#    1 AVENUE DU GENERAL DE GAULLE, 92141 CLAMART CEDEX, FRANCE.
# ======================================================================

DEBUT(CODE=_F(NIV_PUB_WEB='INTERNET'), DEBUG=_F(SDVERI='OUI'))

#

UN=DEFI_CONSTANTE(    VALE=1.)

ZERO=DEFI_CONSTANTE(    VALE=0.)

VISCOLIQ=DEFI_CONSTANTE(    VALE=1.E-3)

VISCOGAZ=DEFI_CONSTANTE(    VALE=1.8E-5)

DVISCOL=DEFI_CONSTANTE(    VALE=0.)

DVISCOG=DEFI_CONSTANTE(    VALE=0.)

KINT=DEFI_CONSTANTE(    VALE=1.E-18)

LAMBLIQ=DEFI_CONSTANTE(VALE=0.6,);
LAMBGAZ=DEFI_CONSTANTE(VALE=0.03,);


####  FONCTION SATURATION ET SA DERIVEE : UNITE DE PRESSION : PA
LI2=DEFI_LIST_REEL(DEBUT=0.0,
                   INTERVALLE=_F(JUSQU_A=1.6E8,
                                 PAS=1.E6,),);

SL = FORMULE(NOM_PARA='PCAP',VALE=' 0.99*(1.-PCAP*4.495E-6)')
SATU=CALC_FONC_INTERP(FONCTION=SL,
                      LIST_PARA=LI2,
                       NOM_PARA='PCAP',
                      PROL_DROITE='CONSTANT',
                      PROL_GAUCHE='CONSTANT',
                      INFO=2,);

DSL = FORMULE(NOM_PARA='PCAP',VALE=' -4.495E-6*0.99')

DSATU=CALC_FONC_INTERP(FONCTION=DSL,
                       LIST_PARA=LI2,
                       NOM_PARA='PCAP',
                       PROL_DROITE='CONSTANT',
                       PROL_GAUCHE='CONSTANT',
                       INFO=2,);

#***********************************************************************
#    MAILLAGE + MODELE
#***********************************************************************

MAILLAGE=LIRE_MAILLAGE(FORMAT='MED', )

MODELE=AFFE_MODELE(     MAILLAGE=MAILLAGE,
                             AFFE=_F(  TOUT = 'OUI',
                                    PHENOMENE = 'MECANIQUE',
                                    MODELISATION = '3D_THHM',
                                   )
                          )
MAILLAGE=DEFI_GROUP( reuse=MAILLAGE,
               MAILLAGE=MAILLAGE,
               CREA_GROUP_MA=_F(NOM='ROCHE',TOUT='OUI'),
               CREA_GROUP_NO=_F(GROUP_MA='ROCHE',), )


MAILLAGE=MODI_MAILLAGE( reuse=MAILLAGE,   MAILLAGE=MAILLAGE,
                       ORIE_PEAU_3D=_F(  GROUP_MA = ('HAUT', 'DEVANT', 'DROITE',),  )
                     )

SOL=DEFI_MATERIAU(    ELAS=_F(  E = 7.2E6,    NU = 0.3,
                                     RHO = 2500.,
                                     ALPHA = 1.E-5,
                                   ),
                    BARCELONE=_F(MU=2.76E6,
                                PORO=0.14,
                                LAMBDA=0.2,
                                KAPA=0.02,
                                M=1.,
                                PRES_CRIT=2.E5,
                                PA=1.E5,
                                R=0.75,
                                BETA=12.5E-6,
                                KC=0.6,
                                PC0_INIT=3.E5,
                                KAPAS=0.008,
                                LAMBDAS=0.08,),
                     COMP_THM = 'LIQU_GAZ',
                     THM_LIQU=_F(
                                RHO = 1000.,
                                UN_SUR_K = 0.5E-9,
                                ALPHA = 1.E-4,
                                CP = 4180.,
                                VISC = VISCOLIQ,
                                D_VISC_TEMP = DVISCOL,
                                        ),
                      THM_GAZ=_F(
                                MASS_MOL = 28.96E-3,
                                CP = 1000.,
                                VISC = VISCOGAZ,
                                D_VISC_TEMP = DVISCOG,
                                  ),
                       THM_VAPE_GAZ=_F(
                                MASS_MOL = 18.E-3,
                                CP = 1870.,
                                VISC = VISCOGAZ,
                                D_VISC_TEMP = ZERO,
                                 ),
                       THM_DIFFU=_F(
                                R_GAZ = 8.315,
                                RHO = 2400.,
                                CP = 800.,
                                BIOT_COEF = 1.,
                                SATU_PRES = SATU,
                                D_SATU_PRES = DSATU,
                                PESA_X = 0.,
                                PESA_Y = 0.,
                                PESA_Z = 0.,
                                    LAMB_T=ZERO,
                                PERM_IN = KINT,
                                PERM_LIQU = UN,
                                D_PERM_LIQU_SATU = ZERO,
                                PERM_GAZ = UN,
                               D_PERM_SATU_GAZ = ZERO,
                                D_PERM_PRES_GAZ = ZERO,
                                 ),
                        THM_INIT=_F(
                                TEMP = 293.,
                                PRE1 = 0.E5,
                                PRE2 = 1.E5,
                                PORO = 0.14,
                                PRES_VAPE = 2269.8,
                                DEGR_SATU=0.99,
                                )
                           )

CHMAT=AFFE_MATERIAU(    MAILLAGE=MAILLAGE,
                             AFFE=_F(  TOUT = 'OUI',    MATER = SOL,  )
                          )

PR_LATE=AFFE_CHAR_MECA(    MODELE=MODELE,
                              PRES_REP=_F(   GROUP_MA = ( 'DEVANT', 'DROITE', ),
                                          PRES = 1.,
                                    )
                       )

PR_V=AFFE_CHAR_MECA(    MODELE=MODELE,
                             PRES_REP=_F(   GROUP_MA = 'HAUT',    PRES = 1.,
                                    )
                        )

DEP_SYM=AFFE_CHAR_MECA(    MODELE=MODELE,FACE_IMPO=(
                              _F(  GROUP_MA = 'BAS',    DZ = 0.,   ),
                              _F(  GROUP_MA = 'DERRIERE',    DX = 0.,   ),
                              _F(  GROUP_MA = 'GAUCHE',    DY = 0.,   ))
                           )

P0=AFFE_CHAR_MECA(    MODELE=MODELE,
                      DDL_IMPO=_F( GROUP_NO='ROCHE',
                                   PRE1 =1.,PRE2=0.,TEMP=0., )
                           )

TEMPS1=DEFI_LIST_REEL(   DEBUT=0.,INTERVALLE=(
                            _F(  JUSQU_A = 1.,    NOMBRE = 10, ),
                            _F(  JUSQU_A = 3.,    NOMBRE = 5, ),
                            _F(  JUSQU_A = 6.,    NOMBRE = 10, ),)
                         )
TEMPS2=DEFI_LIST_REEL(   DEBUT=6.,INTERVALLE=(
                            _F(  JUSQU_A = 8.,    NOMBRE = 8,  ),
                            _F(  JUSQU_A = 15.,   NOMBRE = 10,  ),
                            _F(  JUSQU_A = 20.,   NOMBRE = 10,  ),)
                         )

# AFFECTATION DE L ETAT INITIAL
#
DEPINIT=CREA_CHAMP(MAILLAGE=MAILLAGE,
                    OPERATION='AFFE',
                    TYPE_CHAM='NOEU_DEPL_R',
                    AFFE=(_F(TOUT='OUI',
                             NOM_CMP=('DX','DY','DZ','PRE1','PRE2','TEMP'),
                             VALE=(0.,0.,0.,0.,0.,0.,),),
                          _F(GROUP_NO='ROCHE',
                             NOM_CMP='PRE1',
                             VALE=2.E5,
                              ),
                          _F(GROUP_NO='ROCHE',
                             NOM_CMP='PRE2',
                              VALE=0.,
                              ),
                                 ),);


SIGINIT=CREA_CHAMP(MAILLAGE=MAILLAGE,
                   OPERATION='AFFE',
                   TYPE_CHAM='CART_SIEF_R',
                   AFFE=_F(TOUT='OUI',
                           NOM_CMP=
                           ('SIXX','SIYY','SIZZ','SIXY','SIXZ',
                            'SIYZ',
                            'SIPXX','SIPYY','SIPZZ','SIPXY','SIPXZ',
                            'SIPYZ',
                            'M11','FH11X','FH11Y','FH11Z',
                            'ENT11','M12','FH12X','FH12Y','FH12Z','ENT12',
                            'M21','FH21X','FH21Y','FH21Z','ENT21','QPRIM',
                                     'FHTX','FHTY','FHTZ'),
                           VALE=
                           (-7E4,-7E4,-7E4,0.0,0.0,
                            0.0,
                            -8E4,-8E4,-8E4,0.0,0.0,
                            0.0,
                            0.0,0.0,0.0,0.0,
                           +200.,0.0,0.0,0.0,2.E3,0.0,
                            0.0,0.0,0.0,0.0,0.0,0.0,0.0,0.0,0.0),),);
#CALCUL HYDROSTATIQUE

EVO_DES=DEFI_FONCTION(      NOM_PARA='INST',
                           PROL_DROITE='CONSTANT',
                          PROL_GAUCHE='CONSTANT',
                         VALE=( 0.0,  2.E5,
                                2.0,  2.E5,
                                4.0,  2.E5,
                                5.0,  2.E5,
                                6.0,  2.E5,
                               ),)
EVOL_HYD=DEFI_FONCTION(      NOM_PARA='INST',
                           PROL_DROITE='CONSTANT',
                         VALE=( 0.0,  1.5E5,
                               1.0,   2.E5,
                               3.0,   3.E5,
                               6.0,   8.E5,)
                       )

U1=STAT_NON_LINE(ETAT_INIT = _F(SIGM=SIGINIT,DEPL=DEPINIT),
                        MODELE=MODELE,
                        CHAM_MATER=CHMAT,EXCIT=(
                             _F(
                CHARGE = PR_LATE,
                FONC_MULT = EVOL_HYD,
                ), _F(
                CHARGE = PR_V,
                FONC_MULT = EVOL_HYD,
                ), _F(
                CHARGE = DEP_SYM,
                ), _F(
                CHARGE = P0,
                FONC_MULT = EVO_DES,
                )),
                         COMPORTEMENT=_F(
                RELATION = 'KIT_THHM',
                ITER_INTE_MAXI=100,
                RELATION_KIT = (
                  'BARCELONE',        'LIQU_GAZ',
                  'HYDR_UTIL',  ),
                ),
                       NEWTON=_F(
                     MATRICE='TANGENTE',
                      REAC_ITER=1,
                     ),
                         INCREMENT=_F(
                INST_INIT = 0.,
                LIST_INST = TEMPS1,
                ),
                       CONVERGENCE=_F(
                       ITER_GLOB_MAXI=50,
                       RESI_GLOB_RELA = 1.E-6,
                )
              )

#  TRIAXIAL
#***********************************************************************



EVOL_DEV=DEFI_FONCTION(      NOM_PARA='INST',
                           PROL_DROITE='CONSTANT',
                         VALE=( 6.0,  8.E5,
                               10.0,  9.E5,
                               15.0,  10.E5,
                               20.0,  11.E5,)
                       )
EVO_DES1=DEFI_FONCTION(      NOM_PARA='INST',
                           PROL_DROITE='CONSTANT',
                          PROL_GAUCHE='CONSTANT',
                         VALE=( 6.0,  2.E5,
                                10.0, 2.E5,
                                15.0, 2.E5,
                                20.0, 2.E5,
                               ),)


U1=STAT_NON_LINE(reuse=U1,
                  MODELE=MODELE,
                 CHAM_MATER=CHMAT,EXCIT=(
                             _F(
                CHARGE = DEP_SYM,
                ), _F(
                CHARGE = PR_LATE,
                FONC_MULT = EVOL_HYD,
                ), _F(
                CHARGE = PR_V,
                FONC_MULT = EVOL_DEV,
                ), _F(
                CHARGE = P0,
                FONC_MULT = EVO_DES1,
                )),
                         COMPORTEMENT=_F(
                RELATION = 'KIT_THHM',
                ITER_INTE_MAXI=200,
                RELATION_KIT = (
                  'BARCELONE',        'LIQU_GAZ',
                  'HYDR_UTIL',  ),
                ),
                         ETAT_INIT=_F(
                EVOL_NOLI = U1,
                ),
                         INCREMENT=_F(
                LIST_INST = TEMPS2,
                INST_INIT = 6.,
                INST_FIN = 20.,
                ),
                            NEWTON=_F(
                MATRICE = 'TANGENTE',REAC_ITER=0,
                ),
                       CONVERGENCE=_F(
                RESI_GLOB_RELA = 1.E-6,
                ITER_GLOB_MAXI = 50,
                )
              )


U1=CALC_CHAMP(reuse=U1,CONTRAINTE=('SIGM_ELNO'),VARI_INTERNE=('VARI_ELNO'),RESULTAT=U1)


U1=CALC_CHAMP(  reuse=U1,     RESULTAT=U1,
                       CONTRAINTE='SIGM_NOEU',VARI_INTERNE='VARI_NOEU',
                )

PCR=CALC_CHAMP(RESULTAT=U1,VARI_INTERNE=('VAEX_ELNO'),NOM_VARI='PCR')

IMPR_RESU(RESU=_F(RESULTAT=PCR,NOM_CHAM='VAEX_ELNO',),)

PCR=CALC_CHAMP(reuse=PCR,
            RESULTAT=PCR,
            VARI_INTERNE='VAEX_NOEU',NOM_VARI='PCR'
            );

INDETA=CALC_CHAMP(RESULTAT=U1,VARI_INTERNE=('VAEX_ELNO'),NOM_VARI='IND_ETA')

IMPR_RESU(RESU=_F(RESULTAT=INDETA,NOM_CHAM='VAEX_ELNO',),)

INDETA=CALC_CHAMP(reuse=INDETA,
               RESULTAT=INDETA,
               VARI_INTERNE='VAEX_NOEU',NOM_VARI='IND_ETA'
               );

SEUIL=CALC_CHAMP(RESULTAT=U1,VARI_INTERNE=('VAEX_ELNO'),NOM_VARI='SEUIL_HYD')

IMPR_RESU(RESU=_F(RESULTAT=SEUIL,NOM_CHAM='VAEX_ELNO',),)

SEUIL=CALC_CHAMP(reuse=SEUIL,
              RESULTAT=SEUIL,
              VARI_INTERNE='VAEX_NOEU',NOM_VARI='SEUIL_HYD'
              );

INDHYD=CALC_CHAMP(RESULTAT=U1,VARI_INTERNE=('VAEX_ELNO'),NOM_VARI='IND_HYD')

IMPR_RESU(RESU=_F(RESULTAT=INDHYD,NOM_CHAM='VAEX_ELNO',),)

INDHYD=CALC_CHAMP(reuse=INDHYD,
               RESULTAT=INDHYD,
               VARI_INTERNE='VAEX_NOEU',NOM_VARI='IND_HYD'
               );

#
#-------------------------
#    TEST_RESU
#-------------------------

TEST_RESU(RESU=(_F(NUME_ORDRE=1,
                   RESULTAT=PCR,
                   NOM_CHAM='VAEX_ELNO',
                   NOEUD='NO1',
                   NOM_CMP='X1',
                   VALE_CALC=3.2142422845624E+05,
                   MAILLE='MA1',),
                _F(INST=6.0,
                   RESULTAT=PCR,
                   NOM_CHAM='VAEX_NOEU',
                   NOEUD='NO8',
                   NOM_CMP='X1',
                   VALE_CALC=3.5000000000265E+05,
                   ),
                _F(INST=20.0,
                   RESULTAT=PCR,
                   NOM_CHAM='VAEX_NOEU',
                   NOEUD='NO8',
                   NOM_CMP='X1',
                   VALE_CALC=4.4891333398367E+05,
                   ),
                _F(NUME_ORDRE=1,
                   RESULTAT=SEUIL,
                   NOM_CHAM='VAEX_ELNO',
                   NOEUD='NO1',
                   NOM_CMP='X1',
                   VALE_CALC=3.0E+05,
                   MAILLE='MA1',),
                _F(INST=6.0,
                   RESULTAT=SEUIL,
                   NOM_CHAM='VAEX_NOEU',
                   NOEUD='NO8',
                   NOM_CMP='X1',
                   VALE_CALC=3.6876480361449E+05,
                   ),
                _F(INST=20.0,
                   RESULTAT=SEUIL,
                   NOM_CHAM='VAEX_NOEU',
                   NOEUD='NO8',
                   NOM_CMP='X1',
                   VALE_CALC=6.4522481875049E+05,
                   ),
                _F(NUME_ORDRE=24,
                   RESULTAT=INDETA,
                   NOM_CHAM='VAEX_ELNO',
                   NOEUD='NO1',
                   NOM_CMP='X1',
                   VALE_CALC=1.0,
                   MAILLE='MA1',),
                _F(INST=6.0,
                   RESULTAT=INDETA,
                   NOM_CHAM='VAEX_NOEU',
                   NOEUD='NO8',
                   NOM_CMP='X1',
                   VALE_CALC=1.0,
                   CRITERE='ABSOLU',
                   ),
                _F(INST=20.0,
                   RESULTAT=INDETA,
                   NOM_CHAM='VAEX_NOEU',
                   NOEUD='NO8',
                   NOM_CMP='X1',
                   VALE_CALC=1.0,
                   ),
                _F(INST=6.0,
                   RESULTAT=INDHYD,
                   NOM_CHAM='VAEX_NOEU',
                   NOEUD='NO8',
                   NOM_CMP='X1',
                   VALE_CALC=0.0E+00,
                   CRITERE='ABSOLU',
                   ),
                _F(INST=6.0,
                   RESULTAT=INDHYD,
                   NOM_CHAM='VAEX_NOEU',
                   NOEUD='NO8',
                   NOM_CMP='X1',
                   VALE_CALC=0.0E+00,
                   CRITERE='ABSOLU',
                   ),
                _F(NUME_ORDRE=24,
                   RESULTAT=INDHYD,
                   NOM_CHAM='VAEX_ELNO',
                   NOEUD='NO1',
                   NOM_CMP='X1',
                   VALE_CALC=0.0E+00,
                   MAILLE='MA1',),
                ),
          )

#
#-------------------------
#    TEST_RESU
#-------------------------

TEST_RESU(RESU=(_F(INST=6.0,
                   RESULTAT=U1,
                   NOM_CHAM='DEPL',
                   NOEUD='NO8',
                   NOM_CMP='DZ',
                   VALE_CALC=-0.018404855001812,
                   ),
                _F(INST=20.0,
                   RESULTAT=U1,
                   NOM_CHAM='DEPL',
                   NOEUD='NO8',
                   NOM_CMP='DZ',
                   VALE_CALC=-0.069675076089853,
                   ),
                _F(INST=6.0,
                   RESULTAT=U1,
                   NOM_CHAM='VARI_NOEU',
                   NOEUD='NO8',
                   NOM_CMP='V1',
                   VALE_CALC=3.5000000000265E+05,
                   ),
                _F(INST=20.0,
                   RESULTAT=U1,
                   NOM_CHAM='VARI_NOEU',
                   NOEUD='NO8',
                   NOM_CMP='V1',
                   VALE_CALC=4.4891333398367E+05,
                   ),
                _F(INST=6.0,
                   RESULTAT=U1,
                   NOM_CHAM='VARI_NOEU',
                   NOEUD='NO8',
                   NOM_CMP='V2',
                   VALE_CALC=1.0,
                   ),
                _F(INST=20.0,
                   RESULTAT=U1,
                   NOM_CHAM='VARI_NOEU',
                   NOEUD='NO8',
                   NOM_CMP='V2',
                   VALE_CALC=1.0,
                   ),
                _F(INST=6.0,
                   RESULTAT=U1,
                   NOM_CHAM='VARI_NOEU',
                   NOEUD='NO8',
                   NOM_CMP='V3',
                   VALE_CALC=3.6876480361449E+05,
                   ),
                _F(INST=20.0,
                   RESULTAT=U1,
                   NOM_CHAM='VARI_NOEU',
                   NOEUD='NO8',
                   NOM_CMP='V3',
                   VALE_CALC=6.4522481875049E+05,
                   ),
                _F(INST=6.0,
                   RESULTAT=U1,
                   NOM_CHAM='VARI_NOEU',
                   NOEUD='NO8',
                   NOM_CMP='V4',
                   VALE_CALC=0.0E+00,
                   CRITERE='ABSOLU',
                   ),
                _F(INST=20.0,
                   RESULTAT=U1,
                   NOM_CHAM='VARI_NOEU',
                   NOEUD='NO8',
                   NOM_CMP='V4',
                   VALE_CALC=0.0E+00,
                   CRITERE='ABSOLU',
                   ),
                ),
          )

FIN () ;
