# ======================================================================
# COPYRIGHT (C) 1991 - 2016  EDF R&D                  WWW.CODE-ASTER.ORG
# THIS PROGRAM IS FREE SOFTWARE; YOU CAN REDISTRIBUTE IT AND/OR MODIFY
# IT UNDER THE TERMS OF THE GNU GENERAL PUBLIC LICENSE AS PUBLISHED BY
# THE FREE SOFTWARE FOUNDATION; EITHER VERSION 2 OF THE LICENSE, OR
# (AT YOUR OPTION) ANY LATER VERSION.
#
# THIS PROGRAM IS DISTRIBUTED IN THE HOPE THAT IT WILL BE USEFUL, BUT
# WITHOUT ANY WARRANTY; WITHOUT EVEN THE IMPLIED WARRANTY OF
# MERCHANTABILITY OR FITNESS FOR A PARTICULAR PURPOSE. SEE THE GNU
# GENERAL PUBLIC LICENSE FOR MORE DETAILS.
#
# YOU SHOULD HAVE RECEIVED A COPY OF THE GNU GENERAL PUBLIC LICENSE
# ALONG WITH THIS PROGRAM; IF NOT, WRITE TO EDF R&D CODE_ASTER,
#    1 AVENUE DU GENERAL DE GAULLE, 92141 CLAMART CEDEX, FRANCE.
#
#
# ======================================================================
#

DEBUT(CODE=_F(NIV_PUB_WEB='INTERNET'),DEBUG=_F(SDVERI='OUI'))
#
#  PRE_IDEAS      ( );
#

MAIL1=LIRE_MAILLAGE(FORMAT='MED',);

MAIL=CREA_MAILLAGE(MAILLAGE  = MAIL1,
                   LINE_QUAD = _F(TOUT='OUI'),
                   );



MAIL=DEFI_GROUP(reuse =MAIL,
                MAILLAGE=MAIL,
                CREA_GROUP_NO=(_F(GROUP_MA='BAS'),
                               _F(GROUP_MA='FACESUP'),
                               _F(GROUP_MA='BORDVERT'),
                               ),
                INFO=2,
                );

MAIL = MODI_MAILLAGE(
              reuse        = MAIL,
              MAILLAGE     = MAIL,
              ORIE_PEAU_3D = _F(GROUP_MA = ('FACESUP',),),)

MODELE=AFFE_MODELE(MAILLAGE=MAIL,
                   AFFE=_F(TOUT='OUI',
                           PHENOMENE='MECANIQUE',
                           MODELISATION='3D_HM',),);

LS_N=FORMULE(NOM_PARA=('X','Y','Z'),VALE='X-2.0');

FISS=DEFI_FISS_XFEM(MAILLAGE=MAIL,
                    TYPE_DISCONTINUITE='INTERFACE',
                    DEFI_FISS=_F(FONC_LN=LS_N,),
                    INFO=1,
                   );

MODELEK=MODI_MODELE_XFEM(MODELE_IN=MODELE,
                         FISSURE=FISS,
                         INFO=1,
                        );

#  LISTE DES INSTANTS DE CALCUL
#

LI=DEFI_LIST_REEL(DEBUT=0.0,
                  INTERVALLE=_F(JUSQU_A=1.E-4,
                                NOMBRE=1,),);

UN=DEFI_CONSTANTE(VALE=1.0,);

ZERO=DEFI_CONSTANTE(VALE=0.0,);

BIDON=DEFI_CONSTANTE(VALE=0.0,);

#
#
#K=k*mu/(rhow*g)
#

KINT=DEFI_CONSTANTE(VALE=1.E-08,);
#

MATERIAU=DEFI_MATERIAU(ELAS=_F(E=1.E7,
                               NU=0.0,
                               RHO=2800.0,
                               ALPHA=1.0000000000000001E-05,),
                       COMP_THM = 'LIQU_SATU',
                       THM_LIQU=_F(RHO=1000.0,
                                   UN_SUR_K=0.0,
                                   ALPHA=1.E-4,
                                   CP=4180.0,
                                   VISC=UN,
                                   D_VISC_TEMP=ZERO,),
                       THM_GAZ=_F(MASS_MOL=0.02896,
                                  CP=1000.0,
                                  VISC=BIDON,
                                  D_VISC_TEMP=BIDON,),
                       THM_VAPE_GAZ=_F(MASS_MOL=0.017999999999999999,
                                       CP=1870.0,),
                       THM_INIT=_F(TEMP=293.0,
                                   PRE1=1.E6,
                                   PRE2=1.E5,
                                   PORO=0.5,
                                   PRES_VAPE=2320.0,),
                       THM_DIFFU=_F(R_GAZ=8.3149999999999995,
                                    RHO=2800.0,
                                    CP=660.0,
                                    BIOT_COEF=1.0,
                                    SATU_PRES=UN,
                                    D_SATU_PRES=ZERO,
                                    PESA_X=0.0,
                                    PESA_Y=0.0,
                                    PESA_Z=0.0,
                                    PERM_IN=KINT,
                                    PERM_LIQU=UN,
                                    D_PERM_LIQU_SATU=ZERO,
                                    PERM_GAZ=BIDON,
                                    D_PERM_SATU_GAZ=BIDON,
                                    D_PERM_PRES_GAZ=BIDON,),);

CHMAT0=AFFE_MATERIAU(MAILLAGE=MAIL,
                     AFFE=_F(TOUT='OUI',
                             MATER=MATERIAU,),);

CHAR=AFFE_CHAR_MECA(MODELE=MODELEK,
                    DDL_IMPO=(_F(GROUP_NO='HAUT',
                                 PRE1=0.0,),
                              _F(GROUP_NO='BAS',
                                 DZ=0.0,),
#                              _F(NOEUD=('N9','N6','N42','N45','N48','N51','N54','N57','N60','N63','N66','N69','N72','N75','N78','N81','N84','NS44','NS51','NS58','NS65','NS72','NS79','NS86','NS93','NS100','NS107','NS114','NS121','NS128','NS135','NS142','NS147',),
                              _F(TOUT='OUI',
                                 DX=0.0,
                                 DY=0.0,),
                              ),
                    PRES_REP=(_F(GROUP_MA='GAUCHE',
                                PRES=1.0,),
                              _F(GROUP_MA='DROITE',
                                PRES=1.54,),),
                    );

RES1=STAT_NON_LINE(MODELE=MODELEK,
                    CHAM_MATER=CHMAT0,
                    EXCIT=_F(CHARGE=CHAR,),
                    COMPORTEMENT=_F(RELATION='KIT_HM',PARM_THETA=0.56999999999999995,
                                 RELATION_KIT=('ELAS','LIQU_SATU','HYDR_UTIL'),),
                    INCREMENT=_F(LIST_INST=LI,),
                    NEWTON=_F(MATRICE='TANGENTE',
                              REAC_ITER=10,),
                    CONVERGENCE=_F(ITER_GLOB_MAXI=10,),
                    SOLVEUR=_F(METHODE='LDLT',),);

MA_XFEM=POST_MAIL_XFEM(MODELE = MODELEK)

MA_XFEM=DEFI_GROUP(reuse =MA_XFEM,
                    MAILLAGE=MA_XFEM,
                    CREA_GROUP_NO=(_F(GROUP_MA='BORDVERT'),
                                  ),
                    INFO=2,
                   );

MOD_VISU=AFFE_MODELE(MAILLAGE=MA_XFEM,
                     AFFE=(_F(TOUT='OUI',
                              PHENOMENE='MECANIQUE',
                              MODELISATION='3D_HM',),),
                    );

RESU1=POST_CHAM_XFEM(MODELE_VISU = MOD_VISU,
                     RESULTAT    = RES1,
                     );


MODELIN=AFFE_MODELE(MAILLAGE=MA_XFEM,
                    AFFE=_F(TOUT='OUI',
                            PHENOMENE='MECANIQUE',
                            MODELISATION='3D_HM',
                           ),
                   );
      
#IMPR_RESU(FORMAT='MED',
#          UNITE=80,
#          RESU= (_F(MAILLAGE=MA_XFEM,
#                    RESULTAT = RESU1,
#                    NOM_CHAM = ('DEPL',),
#                    NOM_CMP  = ('DX','DY','DZ','PRE1',),
#                   ),
#                ),
#         )

#IMPR_RESU(RESU=_F(MAILLAGE=MA_XFEM,));

RESU1=CALC_CHAMP(reuse=RESU1,CRITERES=('SIEQ_ELNO'),CONTRAINTE=('SIGM_ELNO'),RESULTAT=RESU1)

TEST_RESU(RESU=(_F(NUME_ORDRE=1,
                   REFERENCE='ANALYTIQUE',
                   RESULTAT=RESU1,
                   NOM_CHAM='DEPL',
                   NOEUD='N69',
                   NOM_CMP='PRE1',
                   VALE_CALC=1.000000000,
                   VALE_REFE=1.0,
                   PRECISION=1.E-3,),
                _F(NUME_ORDRE=1,
                   REFERENCE='ANALYTIQUE',
                   RESULTAT=RESU1,
                   NOM_CHAM='DEPL',
                   NOEUD='N77',
                   NOM_CMP='PRE1',
                   VALE_CALC=1.000000000,
                   VALE_REFE=1.0,
                   PRECISION=1.E-3,),
                _F(NUME_ORDRE=1,
                   REFERENCE='ANALYTIQUE',
                   RESULTAT=RESU1,
                   NOM_CHAM='DEPL',
                   NOEUD='N78',
                   NOM_CMP='PRE1',
                   VALE_CALC=1.000000000,
                   VALE_REFE=1.0,
                   PRECISION=1.E-3,),
                _F(NUME_ORDRE=1,
                   REFERENCE='ANALYTIQUE',
                   RESULTAT=RESU1,
                   NOM_CHAM='DEPL',
                   NOEUD='N79',
                   NOM_CMP='PRE1',
                   VALE_CALC=1.000000000,
                   VALE_REFE=1.0,
                   PRECISION=1.E-3,),
                _F(NUME_ORDRE=1,
                   REFERENCE='ANALYTIQUE',
                   RESULTAT=RESU1,
                   NOM_CHAM='DEPL',
                   NOEUD='N80',
                   NOM_CMP='PRE1',
                   VALE_CALC=1.000000000,
                   VALE_REFE=1.0,
                   PRECISION=1.E-3,),
                _F(NUME_ORDRE=1,
                   REFERENCE='ANALYTIQUE',
                   RESULTAT=RESU1,
                   NOM_CHAM='DEPL',
                   NOEUD='N81',
                   NOM_CMP='PRE1',
                   VALE_CALC=1.000000000,
                   VALE_REFE=1.0,
                   PRECISION=1.E-3,),
                _F(NUME_ORDRE=1,
                   REFERENCE='ANALYTIQUE',
                   RESULTAT=RESU1,
                   NOM_CHAM='DEPL',
                   NOEUD='N82',
                   NOM_CMP='PRE1',
                   VALE_CALC=0.999998095127,
                   VALE_REFE=1.0,
                   PRECISION=1.E-3,),
                _F(NUME_ORDRE=1,
                   REFERENCE='ANALYTIQUE',
                   RESULTAT=RESU1,
                   NOM_CHAM='DEPL',
                   NOEUD='N83',
                   NOM_CMP='PRE1',
                   VALE_CALC=1.00000711016,
                   VALE_REFE=1.0,
                   PRECISION=1.E-3,),
                _F(NUME_ORDRE=1,
                   REFERENCE='ANALYTIQUE',
                   RESULTAT=RESU1,
                   NOM_CHAM='DEPL',
                   NOEUD='N84',
                   NOM_CMP='PRE1',
                   VALE_CALC=0.999973460499,
                   VALE_REFE=1.0,
                   PRECISION=1.E-3,),
                _F(NUME_ORDRE=1,
                   REFERENCE='ANALYTIQUE',
                   RESULTAT=RESU1,
                   NOM_CHAM='DEPL',
                   NOEUD='N85',
                   NOM_CMP='PRE1',
                   VALE_CALC=1.00009906179,
                   VALE_REFE=1.0,
                   PRECISION=1.E-3,),
                _F(NUME_ORDRE=1,
                   REFERENCE='ANALYTIQUE',
                   RESULTAT=RESU1,
                   NOM_CHAM='DEPL',
                   NOEUD='N86',
                   NOM_CMP='PRE1',
                   VALE_CALC=0.99963024031,
                   VALE_REFE=1.0,
                   PRECISION=1.E-3,),
                _F(NUME_ORDRE=1,
                   REFERENCE='ANALYTIQUE',
                   RESULTAT=RESU1,
                   NOM_CHAM='DEPL',
                   NOEUD='N87',
                   NOM_CMP='PRE1',
                   VALE_CALC=1.00138017123,
                   VALE_REFE=1.0,
                   PRECISION=2.E-3,),
                _F(NUME_ORDRE=1,
                   REFERENCE='ANALYTIQUE',
                   RESULTAT=RESU1,
                   NOM_CHAM='DEPL',
                   NOEUD='N88',
                   NOM_CMP='PRE1',
                   VALE_CALC=0.994848349683,
                   VALE_REFE=1.0,
                   PRECISION=6.E-3,),
                _F(NUME_ORDRE=1,
                   REFERENCE='ANALYTIQUE',
                   RESULTAT=RESU1,
                   NOM_CHAM='DEPL',
                   NOEUD='N89',
                   NOM_CMP='PRE1',
                   VALE_CALC=1.0192291365,
                   VALE_REFE=1.0,
                   PRECISION=2.E-2,),
                _F(NUME_ORDRE=1,
                   REFERENCE='ANALYTIQUE',
                   RESULTAT=RESU1,
                   NOM_CHAM='DEPL',
                   NOEUD='N90',
                   NOM_CMP='PRE1',
                   VALE_CALC=0.928225002146,
                   VALE_REFE=1.0,
                   PRECISION=8.E-2,),
                _F(NUME_ORDRE=1,
                   REFERENCE='ANALYTIQUE',
                   RESULTAT=RESU1,
                   NOM_CHAM='DEPL',
                   NOEUD='N91',
                   NOM_CMP='PRE1',
                   VALE_CALC=1.26790856249,
                   VALE_REFE=1.0,
                   PRECISION=2.7E-1,),
                _F(NUME_ORDRE=1,
                   REFERENCE='ANALYTIQUE',
                   RESULTAT=RESU1,
                   NOM_CHAM='DEPL',
                   NOEUD='N71',
                   NOM_CMP='PRE1',
                   VALE_CALC=-5.04870979E-29,
                   VALE_REFE=0.0,
                   CRITERE='ABSOLU',
                   PRECISION=1.E-3,),
                ),
          )


TEST_RESU(RESU=(_F(NUME_ORDRE=1,
                   REFERENCE='ANALYTIQUE',
                   RESULTAT=RESU1,
                   NOM_CHAM='DEPL',
                   NOEUD='N70',
                   NOM_CMP='PRE1',
                   VALE_CALC=1.540000000,
                   VALE_REFE=1.54,
                   PRECISION=1.E-3,),
                _F(NUME_ORDRE=1,
                   REFERENCE='ANALYTIQUE',
                   RESULTAT=RESU1,
                   NOM_CHAM='DEPL',
                   NOEUD='N92',
                   NOM_CMP='PRE1',
                   VALE_CALC=1.540000000,
                   VALE_REFE=1.54,
                   PRECISION=1.E-3,),
                _F(NUME_ORDRE=1,
                   REFERENCE='ANALYTIQUE',
                   RESULTAT=RESU1,
                   NOM_CHAM='DEPL',
                   NOEUD='N93',
                   NOM_CMP='PRE1',
                   VALE_CALC=1.540000000,
                   VALE_REFE=1.54,
                   PRECISION=1.E-3,),
                _F(NUME_ORDRE=1,
                   REFERENCE='ANALYTIQUE',
                   RESULTAT=RESU1,
                   NOM_CHAM='DEPL',
                   NOEUD='N94',
                   NOM_CMP='PRE1',
                   VALE_CALC=1.540000000,
                   VALE_REFE=1.54,
                   PRECISION=1.E-3,),
                _F(NUME_ORDRE=1,
                   REFERENCE='ANALYTIQUE',
                   RESULTAT=RESU1,
                   NOM_CHAM='DEPL',
                   NOEUD='N95',
                   NOM_CMP='PRE1',
                   VALE_CALC=1.540000000,
                   VALE_REFE=1.54,
                   PRECISION=1.E-3,),
                _F(NUME_ORDRE=1,
                   REFERENCE='ANALYTIQUE',
                   RESULTAT=RESU1,
                   NOM_CHAM='DEPL',
                   NOEUD='N96',
                   NOM_CMP='PRE1',
                   VALE_CALC=1.540000000,
                   VALE_REFE=1.54,
                   PRECISION=1.E-3,),
                _F(NUME_ORDRE=1,
                   REFERENCE='ANALYTIQUE',
                   RESULTAT=RESU1,
                   NOM_CHAM='DEPL',
                   NOEUD='N97',
                   NOM_CMP='PRE1',
                   VALE_CALC=1.5399970665,
                   VALE_REFE=1.54,
                   PRECISION=1.E-3,),
                _F(NUME_ORDRE=1,
                   REFERENCE='ANALYTIQUE',
                   RESULTAT=RESU1,
                   NOM_CHAM='DEPL',
                   NOEUD='N98',
                   NOM_CMP='PRE1',
                   VALE_CALC=1.54001094965,
                   VALE_REFE=1.54,
                   PRECISION=1.E-3,),
                _F(NUME_ORDRE=1,
                   REFERENCE='ANALYTIQUE',
                   RESULTAT=RESU1,
                   NOM_CHAM='DEPL',
                   NOEUD='N99',
                   NOM_CMP='PRE1',
                   VALE_CALC=1.53995912917,
                   VALE_REFE=1.54,
                   PRECISION=1.E-3,),
                _F(NUME_ORDRE=1,
                   REFERENCE='ANALYTIQUE',
                   RESULTAT=RESU1,
                   NOM_CHAM='DEPL',
                   NOEUD='N100',
                   NOM_CMP='PRE1',
                   VALE_CALC=1.54015255515,
                   VALE_REFE=1.54,
                   PRECISION=1.E-3,),
                _F(NUME_ORDRE=1,
                   REFERENCE='ANALYTIQUE',
                   RESULTAT=RESU1,
                   NOM_CHAM='DEPL',
                   NOEUD='N101',
                   NOM_CMP='PRE1',
                   VALE_CALC=1.53943057008,
                   VALE_REFE=1.54,
                   PRECISION=1.E-3,),
                _F(NUME_ORDRE=1,
                   REFERENCE='ANALYTIQUE',
                   RESULTAT=RESU1,
                   NOM_CHAM='DEPL',
                   NOEUD='N102',
                   NOM_CMP='PRE1',
                   VALE_CALC=1.5421254637,
                   VALE_REFE=1.54,
                   PRECISION=2.E-3,),
                _F(NUME_ORDRE=1,
                   REFERENCE='ANALYTIQUE',
                   RESULTAT=RESU1,
                   NOM_CHAM='DEPL',
                   NOEUD='N103',
                   NOM_CMP='PRE1',
                   VALE_CALC=1.53206645851,
                   VALE_REFE=1.54,
                   PRECISION=6.E-3,),
                _F(NUME_ORDRE=1,
                   REFERENCE='ANALYTIQUE',
                   RESULTAT=RESU1,
                   NOM_CHAM='DEPL',
                   NOEUD='N104',
                   NOM_CMP='PRE1',
                   VALE_CALC=1.56961287021,
                   VALE_REFE=1.54,
                   PRECISION=2.E-2,),
                _F(NUME_ORDRE=1,
                   REFERENCE='ANALYTIQUE',
                   RESULTAT=RESU1,
                   NOM_CHAM='DEPL',
                   NOEUD='N105',
                   NOM_CMP='PRE1',
                   VALE_CALC=1.4294665033,
                   VALE_REFE=1.54,
                   PRECISION=8.E-2,),
                _F(NUME_ORDRE=1,
                   REFERENCE='ANALYTIQUE',
                   RESULTAT=RESU1,
                   NOM_CHAM='DEPL',
                   NOEUD='N106',
                   NOM_CMP='PRE1',
                   VALE_CALC=1.95257918623,
                   VALE_REFE=1.54,
                   PRECISION=2.7E-1,),
                _F(NUME_ORDRE=1,
                   REFERENCE='ANALYTIQUE',
                   RESULTAT=RESU1,
                   NOM_CHAM='DEPL',
                   NOEUD='N72',
                   NOM_CMP='PRE1',
                   VALE_CALC=2.01948391737E-28,
                   VALE_REFE=0.0,
                   CRITERE='ABSOLU',
                   PRECISION=1.E-3,),
                ),
          )


FIN();
