# ======================================================================
# COPYRIGHT (C) 1991 - 2016  EDF R&D                  WWW.CODE-ASTER.ORG
# THIS PROGRAM IS FREE SOFTWARE; YOU CAN REDISTRIBUTE IT AND/OR MODIFY
# IT UNDER THE TERMS OF THE GNU GENERAL PUBLIC LICENSE AS PUBLISHED BY
# THE FREE SOFTWARE FOUNDATION; EITHER VERSION 2 OF THE LICENSE, OR
# (AT YOUR OPTION) ANY LATER VERSION.
#
# THIS PROGRAM IS DISTRIBUTED IN THE HOPE THAT IT WILL BE USEFUL, BUT
# WITHOUT ANY WARRANTY; WITHOUT EVEN THE IMPLIED WARRANTY OF
# MERCHANTABILITY OR FITNESS FOR A PARTICULAR PURPOSE. SEE THE GNU
# GENERAL PUBLIC LICENSE FOR MORE DETAILS.
#
# YOU SHOULD HAVE RECEIVED A COPY OF THE GNU GENERAL PUBLIC LICENSE
# ALONG WITH THIS PROGRAM; IF NOT, WRITE TO EDF R&D CODE_ASTER,
#    1 AVENUE DU GENERAL DE GAULLE, 92141 CLAMART CEDEX, FRANCE.
# ======================================================================
DEBUT(CODE=_F(NIV_PUB_WEB='INTERNET'),DEBUG=_F(SDVERI='OUI'))

MAIL=LIRE_MAILLAGE()

MAIL=DEFI_GROUP( reuse=MAIL,  MAILLAGE=MAIL,CREA_GROUP_NO=(
                      _F( GROUP_MA = 'BAS'),
                                _F( GROUP_MA = 'HAUT'))
                   )

MODELE=AFFE_MODELE(   MAILLAGE=MAIL,
                        AFFE=_F(  TOUT = 'OUI',
                      PHENOMENE = 'MECANIQUE',
                      MODELISATION = 'D_PLAN_THM')
                     )

#
####################################
#  LISTE DES INSTANTS DE CALCUL
####################################
LI=DEFI_LIST_REEL(   DEBUT=0.,
                       INTERVALLE=_F(  JUSQU_A = 1.E13, NOMBRE = 1)
                     )

############################################
#
# DEFINITION DES FONCTIONS DE COMPORTEMENT :
# VISCOSITE LIQUIDE ET GAZ : UNITE : PA.S
#
UN=DEFI_CONSTANTE(    VALE=1.)

ZERO=DEFI_CONSTANTE(    VALE=0.)

#
#
#
# PERMEABILITE INTRINSEQUE, RELATIVE DU LIQUIDE, RELATIVE DU GAZ
# UNITE INTRINSEQUE : METRES CARRES , UNITE RELATIVE : SANS
#
KINT=DEFI_CONSTANTE(    VALE=3.E-16)

PERMLIQ=DEFI_CONSTANTE(    VALE=1.)

DPERMLI=DEFI_CONSTANTE(    VALE=0.)

PERMGAZ=DEFI_CONSTANTE(    VALE=1.)

DPERGSA=DEFI_CONSTANTE(    VALE=0.)

DPERGPG=DEFI_CONSTANTE(    VALE=0.)


DCONDLI = DEFI_CONSTANTE ( VALE = 0.   )
CONDGAZ = DEFI_CONSTANTE ( VALE = 0.02 )
DCONDGA = DEFI_CONSTANTE ( VALE = 0.   )

#
# CONDUCTIVITES DU SOLIDE, DU LIQUIDE, DU GAZ
# UNITES : WATTS PAR METRE CARRE
#
CONDHOMO=DEFI_CONSTANTE(    VALE=1.7)

DCONDHO=DEFI_CONSTANTE(    VALE=0.)

CONDLIQ=DEFI_CONSTANTE(    VALE=3.E-16)

MATERIAU=DEFI_MATERIAU(     THM_LIQU=_F(
   RHO = 1000.,
   UN_SUR_K = 3.77E-9,
   ALPHA = 8.E-6,
   CP = 2.85E6,
   VISC = UN,
   D_VISC_TEMP = ZERO,
   ),
#
                              THM_GAZ=_F(
   MASS_MOL = 28.96E-3,
   CP = 1000.,
   VISC = UN,
   D_VISC_TEMP = ZERO),
#
                              THM_DIFFU=_F(
   R_GAZ = 8.315,
   RHO = 1.6E3,
   CP = 2.85E6,
   BIOT_COEF = 1.E-12,
   SATU_PRES = UN,
   D_SATU_PRES = ZERO,
   PESA_X = 0.,
   PESA_Y = 0.,
   PESA_Z = 0.,
   PERM_IN = KINT,
   PERM_LIQU = UN,
   D_PERM_LIQU_SATU = ZERO,
   PERM_GAZ = PERMGAZ,
   D_PERM_SATU_GAZ = DPERGSA,
   D_PERM_PRES_GAZ = DPERGPG,
   LAMB_T = CONDHOMO),
                              THM_INIT=_F(
   TEMP = 273.,
   PRE1 = 0.,
   PRE2 = 0.,
   PORO = 0.4,
   PRES_VAPE = 1.),
                               COMP_THM = 'LIQU_SATU',
                                     ELAS=_F(
   E = 225.E6,
   NU = 0.,
   RHO = 2.E3,
   ALPHA = 8.E-6)
   )

CHMAT0=AFFE_MATERIAU(   MAILLAGE=MAIL,
                          AFFE=_F( TOUT = 'OUI',
                        MATER = MATERIAU))

CHAR0=AFFE_CHAR_MECA(   MODELE=MODELE,DDL_IMPO=(
                          _F(  TOUT = 'OUI',
                                     DX = 0.,
                                     DY = 0.),
                          _F(NOEUD=('N1','N2','N3','N4'),
                                    PRE1=0.),
                          _F(NOEUD=('N1','N2'),
                                     TEMP = 0.)),
                        FLUX_THM_REP=_F(  GROUP_MA = 'HAUT',
                                   FLUN = 0.5,
                                   FLUN_HYDR1 = 0.)
                  )

MESTAT=STAT_NON_LINE(   MODELE=MODELE,
                SOLVEUR=_F( METHODE = 'MUMPS'),
                          CHAM_MATER=CHMAT0,
                          EXCIT=_F( CHARGE = CHAR0),
                          COMPORTEMENT=_F( RELATION = 'KIT_THM',PARM_THETA=1.,
                          RELATION_KIT = ('ELAS', 'LIQU_SATU',  'HYDR_UTIL'),
                          ITER_INTE_MAXI = 5),
                          INCREMENT=_F( LIST_INST = LI),
                          NEWTON=_F( MATRICE = 'TANGENTE',
                                  REAC_ITER = 20),
                         CONVERGENCE=_F(
                                     ITER_GLOB_MAXI = 10,
                                     RESI_GLOB_RELA = 1.E-6),
                        )

TEST_RESU(RESU=_F(NUME_ORDRE=1,
                  RESULTAT=MESTAT,
                  NOM_CHAM='DEPL',
                  NOEUD='N1',
                  NOM_CMP='TEMP',
                  VALE_CALC=0.0,

                  CRITERE='ABSOLU',
                  ),
          )

TEST_RESU(RESU=_F(NUME_ORDRE=1,
                  RESULTAT=MESTAT,
                  NOM_CHAM='DEPL',
                  NOEUD='N3',
                  NOM_CMP='TEMP',
                  VALE_CALC=0.294091352,
                  VALE_REFE=0.29411799999999999,
                  REFERENCE='NON_DEFINI',
                  CRITERE='RELATIF',
                  PRECISION=1.E-2,),
          )

FIN()
#
