# TITRE TEST THMS 3D, MODELISATION THMC=LIQU_SATU
# ======================================================================
# COPYRIGHT (C) 1991 - 2012  EDF R&D                  WWW.CODE-ASTER.ORG
# THIS PROGRAM IS FREE SOFTWARE; YOU CAN REDISTRIBUTE IT AND/OR MODIFY
# IT UNDER THE TERMS OF THE GNU GENERAL PUBLIC LICENSE AS PUBLISHED BY
# THE FREE SOFTWARE FOUNDATION; EITHER VERSION 2 OF THE LICENSE, OR
# (AT YOUR OPTION) ANY LATER VERSION.
#
# THIS PROGRAM IS DISTRIBUTED IN THE HOPE THAT IT WILL BE USEFUL, BUT
# WITHOUT ANY WARRANTY; WITHOUT EVEN THE IMPLIED WARRANTY OF
# MERCHANTABILITY OR FITNESS FOR A PARTICULAR PURPOSE. SEE THE GNU
# GENERAL PUBLIC LICENSE FOR MORE DETAILS.
#
# YOU SHOULD HAVE RECEIVED A COPY OF THE GNU GENERAL PUBLIC LICENSE
# ALONG WITH THIS PROGRAM; IF NOT, WRITE TO EDF R&D CODE_ASTER,
#    1 AVENUE DU GENERAL DE GAULLE, 92141 CLAMART CEDEX, FRANCE.
# ======================================================================
DEBUT(CODE=_F(NIV_PUB_WEB='INTERNET'),DEBUG=_F(SDVERI='OUI'))

#
####################################
#   OPERATIONS SUR LE MAILLAGE
#
####################################
MAIL=LIRE_MAILLAGE(FORMAT='MED',)

MODELE=AFFE_MODELE(   MAILLAGE=MAIL,
                        AFFE=_F(  TOUT = 'OUI',
                      PHENOMENE = 'MECANIQUE',
                      MODELISATION = '3D_THMS')
                     )

####################################
#  LISTE DES INSTANTS DE CALCUL
####################################
LI=DEFI_LIST_REEL(   DEBUT=0.,INTERVALLE=(
                       _F(  JUSQU_A = 1.E0,  NOMBRE = 1),
                       _F(  JUSQU_A = 5.E0,  NOMBRE = 1),
                       _F(  JUSQU_A = 1.E1,  NOMBRE = 1),
                       _F(  JUSQU_A = 5.E1,  NOMBRE = 1),
                       _F(  JUSQU_A = 1.E2,  NOMBRE = 1),
                       _F(  JUSQU_A = 5.E2,  NOMBRE = 1),
                       _F(  JUSQU_A = 1.E3,  NOMBRE = 1),
                       _F(  JUSQU_A = 5.E3,  NOMBRE = 1),
                       _F(  JUSQU_A = 1.E4,  NOMBRE = 1),
                       _F(  JUSQU_A = 5.E4,  NOMBRE = 1),
                       _F(  JUSQU_A = 1.E5,  NOMBRE = 1),
                       _F(  JUSQU_A = 5.E5,  NOMBRE = 1),
                       _F(  JUSQU_A = 1.E6,  NOMBRE = 1),
                       _F(  JUSQU_A = 5.E6,  NOMBRE = 1),
                       _F(  JUSQU_A = 1.E7,  NOMBRE = 1),
                       _F(  JUSQU_A = 1.E10, NOMBRE = 1))
                     )

ARCHI=DEFI_LIST_REEL(    DEBUT=0.,INTERVALLE=(
                       _F(  JUSQU_A = 1.E0,  NOMBRE = 1),
                       _F(  JUSQU_A = 5.E0,  NOMBRE = 1),
                       _F(  JUSQU_A = 1.E1,  NOMBRE = 1),
                       _F(  JUSQU_A = 5.E1,  NOMBRE = 1),
                       _F(  JUSQU_A = 1.E2,  NOMBRE = 1),
                       _F(  JUSQU_A = 5.E2,  NOMBRE = 1),
                       _F(  JUSQU_A = 1.E3,  NOMBRE = 1),
                       _F(  JUSQU_A = 5.E3,  NOMBRE = 1),
                       _F(  JUSQU_A = 1.E4,  NOMBRE = 1),
                       _F(  JUSQU_A = 5.E4,  NOMBRE = 1),
                       _F(  JUSQU_A = 1.E5,  NOMBRE = 1),
                       _F(  JUSQU_A = 5.E5,  NOMBRE = 1),
                       _F(  JUSQU_A = 1.E6,  NOMBRE = 1),
                       _F(  JUSQU_A = 5.E6,  NOMBRE = 1),
                       _F(  JUSQU_A = 1.E7,  NOMBRE = 1),
                       _F(  JUSQU_A = 1.E10, NOMBRE = 1))
                 )

############################################
#
#
############################################
#
# DEFINITION DES FONCTIONS DE COMPORTEMENT :
# VISCOSITE LIQUIDE : UNITE : PA.S
#
####
VISCOLIQ=DEFI_CONSTANTE(    VALE=1.E-3)

VISCOGAZ=DEFI_CONSTANTE(    VALE=1.E-5)

DVISCOL=DEFI_CONSTANTE(    VALE=0.)

DVISCOG=DEFI_CONSTANTE(    VALE=0.)

DCONDLI = DEFI_CONSTANTE ( VALE = 0.   )
CONDGAZ = DEFI_CONSTANTE ( VALE = 0.02 )
DCONDGA = DEFI_CONSTANTE ( VALE = 0.   )

PERMGAZ=DEFI_CONSTANTE(    VALE=1.)
DPERGSA=DEFI_CONSTANTE(    VALE=0.)
DPERGPG=DEFI_CONSTANTE(    VALE=0.)

#####
KINT=DEFI_CONSTANTE(    VALE=1.E-18)

UN=DEFI_CONSTANTE(    VALE=1.)

ZERO=DEFI_CONSTANTE(    VALE=0.)

MATERIAU=DEFI_MATERIAU(     THM_LIQU=_F(
   RHO = 1000.,
   UN_SUR_K = 3.77E-9,
   ALPHA = 1.E-4,
   CP = 2.85E6,
   VISC = VISCOLIQ,
   D_VISC_TEMP = DVISCOL,),
                              THM_GAZ=_F(
   MASS_MOL = 28.96E-3,
   CP = 1000.,
   VISC = UN,
   D_VISC_TEMP = ZERO,),
                              THM_DIFFU=_F(
   R_GAZ = 8.315,
   RHO = 1.6E3,
   CP = 2.85E6,
   BIOT_COEF = 1.,
   SATU_PRES = UN,
   D_SATU_PRES = ZERO,
   PESA_X = 0.,
   PESA_Y = 0.,
   PESA_Z = -10.,
   PERM_IN = KINT,
   PERM_LIQU = UN,
   D_PERM_LIQU_SATU = ZERO,
   PERM_GAZ = PERMGAZ,
   D_PERM_SATU_GAZ = DPERGSA,
   D_PERM_PRES_GAZ = DPERGPG,
   LAMB_T = UN,),
                              THM_INIT=_F(
   TEMP = 293.,
   PRE1 = 0.,
   PRE2 = 1.E5,
   PORO = 0.4,
   PRES_VAPE = 1.),
                               COMP_THM = 'LIQU_SATU',
                                     ELAS=_F(
   E = 225.E6,
   NU = 0.,
   RHO = 2000.,
   ALPHA = 8.E-6)
   )

CHMAT0=AFFE_MATERIAU(   MAILLAGE=MAIL,
                          AFFE=_F( TOUT = 'OUI',
                        MATER = MATERIAU))

CHARHO=AFFE_CHAR_MECA(   MODELE=MODELE,
                          DDL_IMPO=(_F(  TOUT = 'OUI',
                                    DX = 0.,
                                    DY = 0.,
                                    DZ = 0.,),
                                    _F(NOEUD=('NO1','NO3','NO8','NO6','NO13','NO15','NO20','NO18'),
                                    TEMP = 0.),
                                   ),)

RESU0=STAT_NON_LINE(   MODELE=MODELE,
            SOLVEUR=_F( METHODE = 'MUMPS', PCENT_PIVOT=120),
                          CHAM_MATER=CHMAT0,
                          EXCIT=_F( CHARGE = CHARHO),
                          COMPORTEMENT=_F( RELATION = 'KIT_THM',PARM_THETA=1.,
                          RELATION_KIT = ('ELAS', 'LIQU_SATU', 'HYDR_UTIL',),
                          ITER_INTE_MAXI = 5),
                          INCREMENT=_F( LIST_INST = LI,INST_FIN=5.E4),
                          NEWTON=_F( MATRICE = 'TANGENTE',
                                  REAC_ITER = 121),
                         CONVERGENCE=_F(
                                     RESI_GLOB_RELA = 1.E-8,
                                     ITER_GLOB_MAXI = 120),
                          ARCHIVAGE=_F(  LIST_INST = ARCHI),
                          SUIVI_DDL=(_F(NOM_CMP='PRE1',
                                        NOM_CHAM='DEPL',
                                        EVAL_CHAM='MAXI_ABS',
                                        NOEUD=('NO1'),
                                        ),
                                     _F(NOM_CMP='PRE1',
                                        NOM_CHAM='DEPL',
                                        EVAL_CHAM='MINI_ABS',
                                        NOEUD=('NO1'),
                                        ),
                                      _F(NOM_CMP='SIPXX',
                                         NOM_CHAM='SIEF_ELGA',
                                         EVAL_ELGA='VALE',
                                         POINT=1,
                                         EVAL_CHAM='MIN',
                                         GROUP_MA = 'VOLUME',
                                       ),
                                     ),

                          OBSERVATION=( _F(NOM_CMP='SIPXX',
                                       NOM_CHAM='SIEF_ELGA',
                                       EVAL_ELGA='VALE',
                                       POINT=1,
                                       EVAL_CHAM='MIN',
                                       GROUP_MA = 'VOLUME',
                                       ),
                                    _F(NOM_CMP='SIYY',
                                       NOM_CHAM='SIEF_ELGA',
                                       EVAL_ELGA='MIN',
                                       EVAL_CHAM='MIN',
                                       GROUP_MA = 'VOLUME',
                                       ),
                                    _F(NOM_CMP='SIZZ',
                                       NOM_CHAM='SIEF_ELGA',
                                       EVAL_ELGA='MIN',
                                       EVAL_CHAM='MIN',
                                       GROUP_MA = 'VOLUME',
                                       ),
                                    _F(NOM_CMP='SIPXX',
                                       NOM_CHAM='SIEF_ELGA',
                                       EVAL_ELGA='MIN',
                                       EVAL_CHAM='MIN',
                                       GROUP_MA = 'VOLUME',
                                       ),
                                     _F(TITRE='VALE_PRE1',
                                       NOM_CMP='PRE1',
                                       NOM_CHAM='DEPL',
                                       EVAL_CHAM='VALE',
                                       NOEUD=('NO1','NO3','NO8','NO6','NO13','NO15','NO20','NO18'),
                                       ),
                                     _F(TITRE='MIN_PRE1',
                                       NOM_CMP='PRE1',
                                       NOM_CHAM='DEPL',
                                       EVAL_CHAM='MIN',
                                       NOEUD=('NO1','NO3','NO8','NO6','NO13','NO15','NO20','NO18'),
                                       ),
                                     _F(TITRE='MAX_PRE1',
                                       NOM_CMP='PRE1',
                                       NOM_CHAM='DEPL',
                                       EVAL_CHAM='MAX',
                                       NOEUD=('NO1','NO3','NO8','NO6','NO13','NO15','NO20','NO18'),
                                       ),
                                    _F(TITRE='MAXI_ABS_PRE1',
                                       NOM_CMP='PRE1',
                                       NOM_CHAM='DEPL',
                                       EVAL_CHAM='MAXI_ABS',
                                       NOEUD=('NO1','NO3','NO8','NO6','NO13','NO15','NO20','NO18'),
                                       ),
                                    _F(TITRE='MINI_ABS_PRE1',
                                       NOM_CMP='PRE1',
                                       NOM_CHAM='DEPL',
                                       EVAL_CHAM='MINI_ABS',
                                       NOEUD=('NO1','NO3','NO8','NO6','NO13','NO15','NO20','NO18'),
                                       ),

                   ),)


TEST_RESU(RESU=_F(INST=5.E3,
                  REFERENCE='NON_DEFINI',
                  RESULTAT=RESU0,
                  NOM_CHAM='DEPL',
                  NOEUD='NO1',
                  NOM_CMP='PRE1',
                  VALE_CALC=-65.592233039,
                  VALE_REFE=-65.0,
                  CRITERE='RELATIF',
                  PRECISION=0.02,),
          )

TEST_RESU(RESU=_F(INST=5.E3,
                  REFERENCE='NON_DEFINI',
                  RESULTAT=RESU0,
                  NOM_CHAM='DEPL',
                  NOEUD='NO20',
                  NOM_CMP='PRE1',
                  VALE_CALC=65.592217098,
                  VALE_REFE=65.0,
                  CRITERE='RELATIF',
                  PRECISION=0.02,),
          )


RESU0=STAT_NON_LINE(   reuse=RESU0,MODELE=MODELE,
                       SOLVEUR=_F( METHODE = 'MUMPS', PCENT_PIVOT=120),
                       CHAM_MATER=CHMAT0,
                       EXCIT=_F( CHARGE = CHARHO),
                       COMPORTEMENT=_F( RELATION = 'KIT_THM',PARM_THETA=1.,
                                    RELATION_KIT = ('ELAS', 'LIQU_SATU', 'HYDR_UTIL',),
                                     ITER_INTE_MAXI = 5),
                       ETAT_INIT=_F(EVOL_NOLI=RESU0,),
                       INCREMENT=_F( LIST_INST = LI,INST_INIT=50),
                       NEWTON=_F( MATRICE = 'TANGENTE',REAC_ITER = 121),
                         CONVERGENCE=_F(
                                     RESI_GLOB_RELA = 1.E-8,
                                     ITER_GLOB_MAXI = 120),
                          ARCHIVAGE=_F(  LIST_INST = ARCHI),
                          SUIVI_DDL=(_F(NOM_CMP='PRE1',
                                        NOM_CHAM='DEPL',
                                        EVAL_CHAM='MAXI_ABS',
                                        NOEUD=('NO1'),
                                        ),
                                     _F(NOM_CMP='PRE1',
                                        NOM_CHAM='DEPL',
                                        EVAL_CHAM='MINI_ABS',
                                        NOEUD=('NO1'),
                                        ),
                                      _F(NOM_CMP='SIPXX',
                                         NOM_CHAM='SIEF_ELGA',
                                         EVAL_ELGA='VALE',
                                         POINT=1,
                                         EVAL_CHAM='MIN',
                                         GROUP_MA = 'VOLUME',
                                       ),
                                     ),

                          OBSERVATION=( _F(NOM_CMP='SIPXX',
                                       NOM_CHAM='SIEF_ELGA',
                                       EVAL_ELGA='VALE',
                                       POINT=1,
                                       #EVAL_CHAM='MINI_ABS',
                                       EVAL_CHAM='MIN',
                                       GROUP_MA = 'VOLUME',
                                       ),
                                    _F(NOM_CMP='SIYY',
                                       NOM_CHAM='SIEF_ELGA',
                                       EVAL_ELGA='MIN',
                                       EVAL_CHAM='MIN',
                                       GROUP_MA = 'VOLUME',
                                       ),
                                    _F(NOM_CMP='SIZZ',
                                       NOM_CHAM='SIEF_ELGA',
                                       EVAL_ELGA='MIN',
                                       EVAL_CHAM='MIN',
                                       GROUP_MA = 'VOLUME',
                                       ),
                                    _F(NOM_CMP='SIPXX',
                                       NOM_CHAM='SIEF_ELGA',
                                       EVAL_ELGA='MIN',
                                       EVAL_CHAM='MIN',
                                       GROUP_MA = 'VOLUME',
                                       ),
                                     _F(TITRE='VALE_PRE1',
                                       NOM_CMP='PRE1',
                                       NOM_CHAM='DEPL',
                                       EVAL_CHAM='VALE',
                                       NOEUD=('NO1','NO3','NO8','NO6','NO13','NO15','NO20','NO18'),
                                       ),
                                     _F(TITRE='MIN_PRE1',
                                       NOM_CMP='PRE1',
                                       NOM_CHAM='DEPL',
                                       EVAL_CHAM='MIN',
                                       NOEUD=('NO1','NO3','NO8','NO6','NO13','NO15','NO20','NO18'),
                                       ),
                                     _F(TITRE='MAX_PRE1',
                                       NOM_CMP='PRE1',
                                       NOM_CHAM='DEPL',
                                       EVAL_CHAM='MAX',
                                       NOEUD=('NO1','NO3','NO8','NO6','NO13','NO15','NO20','NO18'),
                                       ),
                                    _F(TITRE='MAXI_ABS_PRE1',
                                       NOM_CMP='PRE1',
                                       NOM_CHAM='DEPL',
                                       EVAL_CHAM='MAXI_ABS',
                                       NOEUD=('NO1','NO3','NO8','NO6','NO13','NO15','NO20','NO18'),
                                       ),
                                    _F(TITRE='MINI_ABS_PRE1',
                                       NOM_CMP='PRE1',
                                       NOM_CHAM='DEPL',
                                       EVAL_CHAM='MINI_ABS',
                                       NOEUD=('NO1','NO3','NO8','NO6','NO13','NO15','NO20','NO18'),
                                       ),

                   ),)


TEST_RESU(RESU=_F(NUME_ORDRE=16,
                  REFERENCE='NON_DEFINI',
                  RESULTAT=RESU0,
                  NOM_CHAM='DEPL',
                  NOEUD='NO1',
                  NOM_CMP='PRE1',
                  VALE_CALC=-5.00004693E+03,
                  VALE_REFE=-5000.0,
                  CRITERE='RELATIF',
                  PRECISION=1.E-2,),
          )

TEST_RESU(RESU=_F(NUME_ORDRE=16,
                  REFERENCE='NON_DEFINI',
                  RESULTAT=RESU0,
                  NOM_CHAM='DEPL',
                  NOEUD='NO20',
                  NOM_CMP='PRE1',
                  VALE_CALC= 4.99995270E+03,
                  VALE_REFE=5000.0,
                  CRITERE='RELATIF',
                  PRECISION=1.E-2,),
          )

TEST_RESU(RESU=_F(NUME_ORDRE=16,
                  REFERENCE='AUTRE_ASTER',
                  RESULTAT=RESU0,
                  NOM_CHAM='DEPL',
                  NOEUD='NO20',
                  NOM_CMP='PRE1',
                  VALE_CALC= 4.99995270E+03,
                  VALE_REFE=5000.0,
                  CRITERE='RELATIF',
                  PRECISION=0.10000000000000001,),
          )

####

TAB_OBS=RECU_TABLE(CO=RESU0,
                   NOM_TABLE='OBSERVATION',);

IMPR_TABLE(TABLE=TAB_OBS);

TAB_CAL=RECU_TABLE(CO=RESU0,
                   NOM_TABLE='PARA_CALC',);

IMPR_TABLE(TABLE=TAB_CAL);

TEST_TABLE(
           VALE_CALC=2886.7983561532001,
           NOM_PARA='VALE',
           TABLE=TAB_OBS,
           FILTRE=(_F(CRIT_COMP='EQ',
                      NOM_PARA='NOM_CHAM',
                      VALE_K='SIEF_ELGA',),
                   _F(CRIT_COMP='EQ',
                      NOM_PARA='EVAL_CHAM',
                      VALE_K='MIN',),
                   _F(CRIT_COMP='EQ',
                      NOM_PARA='NOM_CMP',
                      VALE_K='SIPXX',),
                   _F(CRIT_COMP='EQ',
                      NOM_PARA='POINT',
                      VALE_I=1,),
                   _F(NOM_PARA='INST',
                      VALE=1.000000000000e+10,),
                   _F(NOM_PARA='NUME_REUSE',
                      VALE_I=1,),
                   ),
           )

TEST_TABLE(
           VALE_CALC=-4999.9526983562,
           NOM_PARA='VALE',
           TABLE=TAB_OBS,
           FILTRE=(_F(CRIT_COMP='EQ',
                      NOM_PARA='NOM_CHAM',
                      VALE_K='SIEF_ELGA',),
                   _F(CRIT_COMP='EQ',
                      NOM_PARA='EVAL_CHAM',
                      VALE_K='MIN',),
                   _F(CRIT_COMP='EQ',
                      NOM_PARA='NOM_CMP',
                      VALE_K='SIPXX',),
                   _F(CRIT_COMP='EQ',
                      NOM_PARA='EVAL_ELGA',
                      VALE_K='MIN',),
                   _F(NOM_PARA='INST',
                      VALE=1.000000000000e+10,),
                   _F(NOM_PARA='NUME_REUSE',
                      VALE_I=1,),
                   ),
           )

TEST_TABLE(CRITERE='ABSOLU',
           VALE_CALC=0.0,
           NOM_PARA='VALE',
           TABLE=TAB_OBS,
           FILTRE=(_F(CRIT_COMP='EQ',
                      NOM_PARA='NOM_CHAM',
                      VALE_K='SIEF_ELGA',),
                   _F(CRIT_COMP='EQ',
                      NOM_PARA='EVAL_CHAM',
                      VALE_K='MIN',),
                   _F(CRIT_COMP='EQ',
                      NOM_PARA='NOM_CMP',
                      VALE_K='SIYY',),
                   _F(CRIT_COMP='EQ',
                      NOM_PARA='EVAL_ELGA',
                      VALE_K='MIN',),
                   _F(NOM_PARA='INST',
                      VALE=1.000000000000e+10,),
                   _F(NOM_PARA='NUME_REUSE',
                      VALE_I=1,),
                   ),
           )

TEST_TABLE(CRITERE='ABSOLU',
           VALE_CALC=0.0,
           NOM_PARA='VALE',
           TABLE=TAB_OBS,
           FILTRE=(_F(CRIT_COMP='EQ',
                      NOM_PARA='NOM_CHAM',
                      VALE_K='SIEF_ELGA',),
                   _F(CRIT_COMP='EQ',
                      NOM_PARA='EVAL_CHAM',
                      VALE_K='MIN',),
                   _F(CRIT_COMP='EQ',
                      NOM_PARA='NOM_CMP',
                      VALE_K='SIZZ',),
                   _F(CRIT_COMP='EQ',
                      NOM_PARA='EVAL_ELGA',
                      VALE_K='MIN',),
                   _F(NOM_PARA='INST',
                      VALE=1.000000000000e+10,),
                   _F(NOM_PARA='NUME_REUSE',
                      VALE_I=1,),
                   ),
           )

TEST_TABLE(CRITERE='RELATIF',
           VALE_CALC=5000.0469320953998,
           NOM_PARA='VALE',
           TABLE=TAB_OBS,
           FILTRE=(_F(CRIT_COMP='EQ',
                      NOM_PARA='NOM_OBSERVATION',
                      VALE_K='MAXI_ABS_PRE1',),
                   _F(NOM_PARA='INST',
                      VALE=1.000000000000e+10,),
                   _F(NOM_PARA='NUME_REUSE',
                      VALE_I=1,),
                   ),
           )

TEST_TABLE(CRITERE='RELATIF',
           VALE_CALC=4999.9526983751002,
           NOM_PARA='VALE',
           TABLE=TAB_OBS,
           FILTRE=(_F(CRIT_COMP='EQ',
                      NOM_PARA='NOM_OBSERVATION',
                      VALE_K='MINI_ABS_PRE1',),
                   _F(NOM_PARA='INST',
                      VALE=1.000000000000e+10,),
                   _F(NOM_PARA='NUME_REUSE',
                      VALE_I=1,),
                   ),
           )

IMPR_RESU(FORMAT='RESULTAT',
          RESU=_F(RESULTAT=RESU0,NUME_ORDRE=16,),)



FIN()
#
