# MODIF  DATE 27/02/2006   AUTEUR DURAND C.DURAND 
# TITRE MODELISATION DE LA DIFFUSION DE L AIR DISSOUS DANS L EAU
#            CONFIGURATION MANAGEMENT OF EDF VERSION
# ======================================================================
# COPYRIGHT (C) 1991 - 2006  EDF R&D                  WWW.CODE-ASTER.ORG
# THIS PROGRAM IS FREE SOFTWARE; YOU CAN REDISTRIBUTE IT AND/OR MODIFY  
# IT UNDER THE TERMS OF THE GNU GENERAL PUBLIC LICENSE AS PUBLISHED BY  
# THE FREE SOFTWARE FOUNDATION; EITHER VERSION 2 OF THE LICENSE, OR     
# (AT YOUR OPTION) ANY LATER VERSION.                                                    
#                                                                       
# THIS PROGRAM IS DISTRIBUTED IN THE HOPE THAT IT WILL BE USEFUL, BUT   
# WITHOUT ANY WARRANTY; WITHOUT EVEN THE IMPLIED WARRANTY OF            
# MERCHANTABILITY OR FITNESS FOR A PARTICULAR PURPOSE. SEE THE GNU      
# GENERAL PUBLIC LICENSE FOR MORE DETAILS.                              
#                                                                       
# YOU SHOULD HAVE RECEIVED A COPY OF THE GNU GENERAL PUBLIC LICENSE     
# ALONG WITH THIS PROGRAM; IF NOT, WRITE TO EDF R&D CODE_ASTER,         
#    1 AVENUE DU GENERAL DE GAULLE, 92141 CLAMART CEDEX, FRANCE.        
# ======================================================================


DEBUT(CODE=_F(NOM='WTNV131B',NIV_PUB_WEB='INTERNET'),);
####################################
#############################
############################

                                   
                                   
INST1=DEFI_LIST_REEL(DEBUT=0.0,
                     INTERVALLE=(
                       _F(JUSQU_A=5000000000.,NOMBRE=100,),
                                 ),);


MAIL=LIRE_MAILLAGE();


MODELE=AFFE_MODELE(MAILLAGE=MAIL,
                   AFFE=_F(TOUT='OUI',
                           PHENOMENE='MECANIQUE',
                           MODELISATION='3D_HH2MS',),);
#
#

MAIL=DEFI_GROUP( reuse=MAIL,
               MAILLAGE=MAIL,
               CREA_GROUP_MA=(_F(NOM='ROCHE',
                                     TOUT='OUI'),),
               CREA_GROUP_NO=(_F(NOM='ROCHES',
                                 CRIT_NOEUD='SOMMET',
                                 GROUP_MA='ROCHE'),
                              _F(NOM='GAUCHES',
                                 CRIT_NOEUD='SOMMET',
                                 GROUP_MA='GAUCHE'),                                 
                                 ),)
UN=DEFI_CONSTANTE(VALE=1.0,);
UNDEMI=DEFI_CONSTANTE(VALE=0.5,);

ZERO=DEFI_CONSTANTE(VALE=0.0,);

VISCOLIQ=DEFI_CONSTANTE(VALE=1.E-3,);

VISCOGAZ=DEFI_CONSTANTE(VALE=1.E-03,);

DVISCOL=DEFI_CONSTANTE(VALE=0.0,);

DVISCOG=DEFI_CONSTANTE(VALE=0.0,);
                      
LI2=DEFI_LIST_REEL(DEBUT=-1.E9,
                      INTERVALLE=(
                                  _F(JUSQU_A=1.E9,
                                     NOMBRE=500,),),);
                      
LI1=DEFI_LIST_REEL(DEBUT=0.1,
                   INTERVALLE=_F(JUSQU_A=0.99,
                                 PAS=1.E-2,),);





# LIMITATION DE LA SATURATION MAX (<1)
#CONSTBO = DEFI_CONSTANTE ( VALE : 0.99);
#


SLO = FORMULE(NOM_PARA='PCAP',VALE='0.4');

SATUBO=CALC_FONC_INTERP(FONCTION=SLO,
                        LIST_PARA=LI2,
NOM_PARA='PCAP',
                        PROL_GAUCHE='LINEAIRE',
                        PROL_DROITE='LINEAIRE',
                        INFO=2,);


DSATBO=DEFI_CONSTANTE(VALE=0.,);
#

#
# COEF. DE FICK
#


FICK=DEFI_CONSTANTE(VALE=6.E-10,);

KINTBO=DEFI_CONSTANTE(VALE=1.E-19,);
HENRY=DEFI_CONSTANTE(VALE=50000.,);


MATERBO=DEFI_MATERIAU(ELAS=_F(E=5.15E8,
                              NU=0.2,
                              RHO=2670.0,
                              ALPHA=0.,),
                      COMP_THM = 'LIQU_AD_GAZ_VAPE',
                      THM_LIQU=_F(RHO=1000.0,
                                  UN_SUR_K=0.,
                                  ALPHA=0.,
                                  CP=0.0,
                                  VISC=VISCOLIQ,
                                  D_VISC_TEMP=DVISCOL,),
                      THM_GAZ=_F(MASS_MOL=0.01,
                                 CP=0.0,
                                 VISC=VISCOGAZ,
                                 D_VISC_TEMP=ZERO,),
                      THM_VAPE_GAZ=_F(MASS_MOL=0.01,
                                      CP=0.0,
                                      VISC=VISCOGAZ,
                                      D_VISC_TEMP=ZERO,),
                      THM_AIR_DISS=_F(
                                      CP=0.0,
                                      COEF_HENRY=HENRY
                                      ),
                      THM_INIT=_F(TEMP=300.0,
                                  PRE1=0.0,
                                  PRE2=1.E5,
                                  PORO=1.,
                                  PRES_VAPE=1000.0,
                                  DEGR_SATU=0.4,),
                      THM_DIFFU=_F(R_GAZ=8.32,
                                   RHO=2200.0,
                                   BIOT_COEF=1.0,
                                   SATU_PRES=SATUBO,
                                   D_SATU_PRES=DSATBO,
                                   PESA_X=0.0,
                                   PESA_Y=0.0,
                                   PESA_Z=0.0,
                                   PERM_IN=KINTBO,
                                   PERM_LIQU=UNDEMI,
                                   D_PERM_LIQU_SATU=ZERO,
                                   PERM_GAZ=UNDEMI,
                                   D_PERM_SATU_GAZ=ZERO,
                                   D_PERM_PRES_GAZ=ZERO,
                                   FICKV_T=ZERO,
                                   FICKA_T=FICK,
                                   ),);

CHMAT0=AFFE_MATERIAU(MAILLAGE=MAIL,
                     AFFE=(_F(GROUP_MA='BO',
                              MATER=MATERBO,),
                              ),);


CHAMNO=CREA_CHAMP(MAILLAGE=MAIL,
                    OPERATION='AFFE', 
                    TYPE_CHAM='NOEU_DEPL_R',
                    AFFE=(
                          _F(TOUT='OUI',
                             NOM_CMP='PRE2',
                             VALE=1000.0,),
                          _F(TOUT='OUI',
                             NOM_CMP='PRE1',
                             VALE=1.E6,),
                             ),);
                             


TIMP=AFFE_CHAR_MECA(MODELE=MODELE,
               DDL_IMPO=(
              _F(GROUP_NO=('HAUT','BAS','GAUCHE','DROITE','DEVANT','DERRIERE'),
                      DX=0.0,),
              _F(GROUP_NO=('HAUT','BAS','GAUCHE','DROITE','DEVANT','DERRIERE'),
                      DY=0.0,),
              _F(GROUP_NO=('HAUT','BAS','GAUCHE','DROITE','DEVANT','DERRIERE'),
                      DZ=0.0,),
              _F(GROUP_NO='GAUCHES',
                      PRE2=15000.,),
              _F(GROUP_NO='GAUCHES',
                      PRE1=1.E6,),
                      ),
                      );
               
                                   
SIGINIT=CREA_CHAMP(MAILLAGE=MAIL,
                   OPERATION='AFFE', 
                   TYPE_CHAM='CART_SIEF_R',
                   AFFE=(_F(GROUP_MA='BO',
                            NOM_CMP=
                            ('SIXX','SIYY','SIZZ','SIXY','SIXZ',
                            'SIYZ','SIP','M11','FH11X','FH11Y','FH11Z',
                             'M12','FH12X','FH12Y','FH12Z',
                             'QPRIM','M21', 'FH21X','FH21Y','FH21Z',
                             'M22','FH22X', 'FH22Y','FH22Z','ENT22',),
                            VALE=
                            (0.0,0.0,0.0,0.0,0.0,
                             0.0,0.0,0.0,0.0,0.0,0.0,
                             0.0,0.0,0.0,0.0,
                             0.0,0.0,0.0,0.0,0.0,
                             0.,0.,0.,0.,0.),),
                             ),  );
                                   

U0=STAT_NON_LINE(MODELE=MODELE,
                 CHAM_MATER=CHMAT0,
                 EXCIT=(
                 _F(CHARGE=TIMP,), ),
                 COMP_INCR=_F(RELATION='KIT_HHM',
                              RELATION_KIT=('ELAS','LIQU_AD_GAZ_VAPE','HYDR_UTIL'),),
                 ETAT_INIT=_F(DEPL=CHAMNO,
                              SIGM=SIGINIT,),
                 INCREMENT=_F(LIST_INST=INST1,
                              ),
                 NEWTON=_F(MATRICE='TANGENTE',
                           REAC_ITER=1,),
                 RECH_LINEAIRE=_F(RESI_LINE_RELA=0.1,
                                  ITER_LINE_MAXI=3,),
                 CONVERGENCE=_F(
                                RESI_GLOB_RELA=1.E-6,
                                ITER_GLOB_MAXI=80,
                                ),
                 PARM_THETA=0.6,
                 SOLVEUR=_F(METHODE='MULT_FRONT',
                            STOP_SINGULIER='NON',),
                 );
                                          

# X = 0.2
TEST_RESU(RESU=_F(RESULTAT=U0,
                  NUME_ORDRE=60,
                  NOM_CHAM='DEPL',
                  NOM_CMP='PRE2',
                  NOEUD='N16',
                  VALE=11200.,
                  CRITERE='RELATIF',
                  PRECISION=1.E-2,
                  REFERENCE='AUTRE_ASTER',),);   
TEST_RESU(RESU=_F(RESULTAT=U0,
                  NUME_ORDRE=100,
                  NOM_CHAM='DEPL',
                  NOM_CMP='PRE2',
                  NOEUD='N16',
                  VALE=12230.,
                  CRITERE='RELATIF',
                  PRECISION=1.E-2,
                  REFERENCE='AUTRE_ASTER',),);   


# X = 0.5
TEST_RESU(RESU=_F(RESULTAT=U0,
                  NUME_ORDRE=60,
                  NOM_CHAM='DEPL',
                  NOM_CMP='PRE2',
                  NOEUD='N28',
                  VALE=6570.,
                  CRITERE='RELATIF',
                  PRECISION=1.E-2,
                  REFERENCE='AUTRE_ASTER',),);   
TEST_RESU(RESU=_F(RESULTAT=U0,
                  NUME_ORDRE=100,
                  NOM_CHAM='DEPL',
                  NOM_CMP='PRE2',
                  NOEUD='N28',
                  VALE=8685.,
                  CRITERE='RELATIF',
                  PRECISION=1.E-2,
                  REFERENCE='AUTRE_ASTER',),);   

TEST_RESU(RESU=_F(RESULTAT=U0,
                  NUME_ORDRE=100,
                  NOM_CHAM='DEPL',
                  NOM_CMP='PRE2',
                  NOEUD='N28',
                  VALE=8741.,
                  CRITERE='RELATIF',
                  PRECISION=1.E-4,
                  REFERENCE='NON_REGRESSION',),);   
FIN();
