# MODIF  DATE 28/05/2004   AUTEUR LEBOUVIE F.LEBOUVIER 
# TITRE DESATURATION SUIVIE D UN CHARGEMENT HYDROSTATIQUE
#            CONFIGURATION MANAGEMENT OF EDF VERSION
# ======================================================================
# COPYRIGHT (C) 1991 - 2004  EDF R&D                  WWW.CODE-ASTER.ORG
# THIS PROGRAM IS FREE SOFTWARE; YOU CAN REDISTRIBUTE IT AND/OR MODIFY  
# IT UNDER THE TERMS OF THE GNU GENERAL PUBLIC LICENSE AS PUBLISHED BY  
# THE FREE SOFTWARE FOUNDATION; EITHER VERSION 2 OF THE LICENSE, OR     
# (AT YOUR OPTION) ANY LATER VERSION.                                                    
#                                                                       
# THIS PROGRAM IS DISTRIBUTED IN THE HOPE THAT IT WILL BE USEFUL, BUT   
# WITHOUT ANY WARRANTY; WITHOUT EVEN THE IMPLIED WARRANTY OF            
# MERCHANTABILITY OR FITNESS FOR A PARTICULAR PURPOSE. SEE THE GNU      
# GENERAL PUBLIC LICENSE FOR MORE DETAILS.                              
#                                                                       
# YOU SHOULD HAVE RECEIVED A COPY OF THE GNU GENERAL PUBLIC LICENSE     
# ALONG WITH THIS PROGRAM; IF NOT, WRITE TO EDF R&D CODE_ASTER,         
#    1 AVENUE DU GENERAL DE GAULLE, 92141 CLAMART CEDEX, FRANCE.        
# ======================================================================
DEBUT(   CODE=_F( NOM = 'WTNV124A', NIV_PUB_WEB='INTERNET' )  )

#
UN=DEFI_CONSTANTE(    VALE=1.)

ZERO=DEFI_CONSTANTE(    VALE=0.)

VISCOLIQ=DEFI_CONSTANTE(    VALE=1.E-3)

VISCOGAZ=DEFI_CONSTANTE(    VALE=1.8E-5)

DVISCOL=DEFI_CONSTANTE(    VALE=0.)

DVISCOG=DEFI_CONSTANTE(    VALE=0.)

KINT=DEFI_CONSTANTE(    VALE=1.E-18)



####  FONCTION SATURATION ET SA DERIVEE : UNITE DE PRESSION : PA  
LI2=DEFI_LIST_REEL(DEBUT=0.0,
                   INTERVALLE=_F(JUSQU_A=1.6E8,
                                 PAS=1.E6,),);
  
SL = FORMULE(REEL = '''(REEL:PCAP) = 0.99*(1.-PCAP*6.E-9)''');
SATU=CALC_FONC_INTERP(FONCTION=SL,  
                      LIST_PARA=LI2,  
                       NOM_PARA='PCAP',  
                      PROL_DROITE='CONSTANT',  
                      PROL_GAUCHE='CONSTANT',  
                      INFO=2,);  
  
DSL = FORMULE(REEL = '''(REEL:PCAP) = -6.E-9*0.99''');
  
DSATU=CALC_FONC_INTERP(FONCTION=DSL,  
                       LIST_PARA=LI2,  
                       NOM_PARA='PCAP',  
                       PROL_DROITE='CONSTANT',  
                       PROL_GAUCHE='CONSTANT',  
                       INFO=2,);  

#***********************************************************************
#    MAILLAGE + MODELE
#***********************************************************************

MAILLAGE=LIRE_MAILLAGE( )

MODELE=AFFE_MODELE(     MAILLAGE=MAILLAGE,
                             AFFE=_F(  TOUT = 'OUI',
                                    PHENOMENE = 'MECANIQUE',
                                    MODELISATION = '3D_HHM',
                                   )
                          )

MAILLAGE=MODI_MAILLAGE( reuse=MAILLAGE,   MAILLAGE=MAILLAGE,
                                MODELE=MODELE,
                       ORIE_PEAU_3D=_F(  GROUP_MA = ('HAUT', 'DEVANT', 'DROITE',),  )
                     )

SOL=DEFI_MATERIAU(    ELAS=_F(  E = 22.4E7,    NU = 0.3,  
                                     RHO = 2500.,  
                                     ALPHA = 1.E-5,  
                                   ), 
                    CAM_CLAY=_F(PORO=0.14,
                                LAMBDA=0.25,
                                KAPA=0.05,           
                                M=0.9,
                                PRES_CRIT=3.E7,
                                PA=1.E5,),
                    BARCELONE=_F(R=0.75,
                                BETA=12.5E-6,
                                KC=0.6,           
                                PC0_INIT=6E7,
                                KAPAS=0.01,
                                LAMBDAS=0.05,),
                     COMP_THM = 'LIQU_GAZ',
                     THM_LIQU=_F(  
                                RHO = 1000.,  
                                UN_SUR_K = 0.5E-9,  
                                ALPHA = 1.E-4,  
                                CP = 4180.,  
                                VISC = VISCOLIQ,   
                                D_VISC_TEMP = DVISCOL,  
                                        ),
                      THM_GAZ=_F( 
                                MASS_MOL = 28.96E-3,  
                                CP = 1000.,  
                                VISC = VISCOGAZ,  
                                D_VISC_TEMP = DVISCOG,  
                                  ),
                       THM_VAPE_GAZ=_F( 
                                MASS_MOL = 18.E-3,  
                                CP = 1870.,  
                                VISC = VISCOGAZ,    
                                D_VISC_TEMP = ZERO,    
                                 ),      
                       THM_DIFFU=_F( 
                                R_GAZ = 8.315,  
                                RHO = 2400.,  
                                CP = 800.,  
                                BIOT_COEF = 1.,    
                                SATU_PRES = SATU,  
                                D_SATU_PRES = DSATU,  
                                PESA_X = 0.,  
                                PESA_Y = 0.,  
                                PESA_Z = 0.,  
                                PERM_IN = KINT, 
                                PERM_LIQU = UN,  
                                D_PERM_LIQU_SATU = ZERO,  
                                PERM_GAZ = UN,  
                                D_PERM_SATU_GAZ = ZERO,  
                                D_PERM_PRES_GAZ = ZERO,  
                                 ),
                        THM_INIT=_F( 
                                TEMP = 293.,  
                                PRE1 = 0.,  
                                PRE2 = 1.E5,  
                                PORO = 0.14,  
                                PRES_VAPE = 2269.8,
                                DEGR_SATU=0.99,  
                                )
                           )

CHMAT=AFFE_MATERIAU(    MAILLAGE=MAILLAGE,
                             AFFE=_F(  TOUT = 'OUI',    MATER = SOL,  )
                          )

PR_LATE=AFFE_CHAR_MECA(    MODELE=MODELE,
                              PRES_REP=_F(   GROUP_MA = ( 'DEVANT', 'DROITE', ),  
                                          PRES = 1.,  
                                    )
                       )

PR_V=AFFE_CHAR_MECA(    MODELE=MODELE,
                             PRES_REP=_F(   GROUP_MA = 'HAUT',    PRES = 1.,  
                                    )
                        )

DEP_SYM=AFFE_CHAR_MECA(    MODELE=MODELE,FACE_IMPO=(
                              _F(  GROUP_MA = 'BAS',    DZ = 0.,   ),
                              _F(  GROUP_MA = 'DERRIERE',    DX = 0.,   ),
                              _F(  GROUP_MA = 'GAUCHE',    DY = 0.,   ))
                           )

P0=AFFE_CHAR_MECA(    MODELE=MODELE,
                               DDL_IMPO=_F(  TOUT = 'OUI',   
                               PRE1 =1.,PRE2=0.,
                                )
                           )

EVO_DEVS=DEFI_FONCTION(      NOM_PARA='INST',
                           PROL_DROITE='CONSTANT',
                          PROL_GAUCHE='CONSTANT',
                         VALE=( 0.0,  0.,
                                1.0,  0.,
                                3.0,  1.E7,
                                6.0,  7.E7,
                               ),)

EVOL_HYD=DEFI_FONCTION(      NOM_PARA='INST',
                           PROL_DROITE='CONSTANT',
                         VALE=( 0.0,  0.0,
                               1.0,   100.E5,
                               3.0,   100.E5,
                               6.0,   100.E5,)
                       )


TEMPS1=DEFI_LIST_REEL(   DEBUT=0.,INTERVALLE=(
                            _F(  JUSQU_A = 1.,    NOMBRE = 10, ),
                            _F(  JUSQU_A = 3.,    NOMBRE = 5, ),
                            _F(  JUSQU_A = 6.,    NOMBRE = 6, ),)
                         )
TEMPS2=DEFI_LIST_REEL(   DEBUT=6.,INTERVALLE=(
                            _F(  JUSQU_A = 10.,    NOMBRE = 50,  ),)
                         )

# AFFECTATION DE L ETAT INITIAL
#
DEPINIT=CREA_CHAMP(MAILLAGE=MAILLAGE,
                    OPERATION='AFFE',
                    TYPE_CHAM='NOEU_DEPL_R',
                    AFFE=(_F(TOUT='OUI',
                             NOM_CMP='PRE1',
                             VALE=0.,
                              ),
                          _F(TOUT='OUI',
                             NOM_CMP='PRE2',
                              VALE=0.,
                              ),    ),);


SIGINIT=CREA_CHAMP(MAILLAGE=MAILLAGE,
                   OPERATION='AFFE',
                   TYPE_CHAM='CART_SIEF_R',
                   AFFE=_F(TOUT='OUI',
                           NOM_CMP=
                           ('SIXX','SIYY','SIZZ','SIXY','SIXZ',
                            'SIYZ','SIP','M11','FH11X','FH11Y','FH11Z',
                            'ENT11','M12','FH12X','FH12Y','FH12Z','ENT12',
                            'M21','FH21X','FH21Y','FH21Z','ENT21','QPRIM',
                                     'FHTX','FHTY','FHTZ'),
                           VALE=
                           (-2.E5,-2.E5,-2.E5,0.0,0.0,
                            0.0,-1.E5,0.0,0.0,0.0,0.0,
                           -15E3,0.0,0.0,0.0,0.0,0.0,
                            0.0,0.0,0.0,0.0,0.0,0.0,0.0,0.0,0.0),),);
#DESATURATION

U1=STAT_NON_LINE(ETAT_INIT = _F(SIGM=SIGINIT,DEPL=DEPINIT),
                        MODELE=MODELE,
                        CHAM_MATER=CHMAT,EXCIT=(
                             _F( 
                CHARGE = PR_LATE,            
                FONC_MULT = EVOL_HYD,         
                ), _F( 
                CHARGE = PR_V,            
                FONC_MULT = EVOL_HYD,         
                ), _F( 
                CHARGE = DEP_SYM,            
                ), _F( 
                CHARGE = P0,            
                FONC_MULT = EVO_DEVS,         
                )),
                         COMP_INCR=_F( 
                RELATION = 'KIT_HHM',          
                RELATION_KIT = (
                  'BARCELONE',        'LIQU_GAZ',
                  'HYDR_UTIL',  ),      
                ),
                       NEWTON=_F(
                     MATRICE='TANGENTE',
                      REAC_ITER=1,
                     ),
                         INCREMENT=_F(
                INST_INIT = 0., 
                LIST_INST = TEMPS1,
                ),
                       CONVERGENCE=_F(
                       ITER_GLOB_MAXI=50,
                       ITER_INTE_MAXI=100, 
                       RESI_GLOB_RELA = 1.E-6,    
                )
              )


IMPR_RESU(RESU=_F(MAILLAGE=MAILLAGE,
                  FORMAT='RESULTAT',
                  RESULTAT=U1,
                  PRECISION = 1.E-10,
                  INST = 6.,),);

# CHARGEMENT  HYDROSTATIQUE



EVOL_HY1=DEFI_FONCTION(      NOM_PARA='INST',
                           PROL_DROITE='CONSTANT',
                         VALE=( 6.0,  100.E5,
                               10.0,  700.E6,
                               ))
                               
U1=STAT_NON_LINE(reuse=U1, 
                  MODELE=MODELE,
                 CHAM_MATER=CHMAT,EXCIT=(
                             _F( 
                CHARGE = DEP_SYM,            
                ), _F( 
                CHARGE = PR_LATE,            
                FONC_MULT = EVOL_HY1,         
                ), _F( 
                CHARGE = PR_V,            
                FONC_MULT = EVOL_HY1,         
                ), _F( 
                CHARGE = P0,            
                FONC_MULT = EVO_DEVS,         
                )),
                         COMP_INCR=_F( 
                RELATION = 'KIT_HHM',          
                RELATION_KIT = (
                  'BARCELONE',        'LIQU_GAZ',
                  'HYDR_UTIL',  ),      
                ),
                         ETAT_INIT=_F( 
                EVOL_NOLI = U1,        
                ),
                         INCREMENT=_F( 
                LIST_INST = TEMPS2,
                INST_INIT = 6., 
                INST_FIN = 10.,        
                ),
                            NEWTON=_F( 
                MATRICE = 'TANGENTE', 
                REAC_ITER=1,
                ),
                       CONVERGENCE=_F( 
                RESI_GLOB_RELA = 1.E-6,    
                ITER_INTE_MAXI=100, 
                ITER_GLOB_MAXI = 50,    
                )
              )

U1=CALC_ELEM(  reuse=U1, 
                  OPTION=('SIEF_ELNO_ELGA',
                          'VARI_ELNO_ELGA',
                          ),
                  RESULTAT=U1,
                        )

U1=CALC_NO(  reuse=U1,     RESULTAT=U1,
                       OPTION=( 'SIEF_NOEU_ELGA',
                       'VARI_NOEU_ELGA',
                           ),
                )

#
#-------------------------
#    TEST_RESU 
#-------------------------

TEST_RESU(RESU=(

# DEPLACEMENT DZ
                _F(    RESULTAT = U1,  
                       REFERENCE = 'ANALYTIQUE',  
                       NOEUD = 'NO8',      
                       NOM_CHAM = 'DEPL',    
                       NOM_CMP = 'DZ',     
                       INST=1.,  
                       PRECISION = (3.E-3,1.E-5),  
                       VALE = -5.607E-02,        
                     ),

                _F(    RESULTAT = U1,  
                       REFERENCE = 'ANALYTIQUE',  
                       NOEUD = 'NO8',      
                       NOM_CHAM = 'DEPL',    
                       NOM_CMP = 'DZ',     
                       INST=5.5,  
                       PRECISION = (2.E-3,1.E-5), 
                       VALE = -7.441E-02,        
                     ),

                _F(    RESULTAT = U1,  
                       REFERENCE = 'ANALYTIQUE',  
                       NOEUD = 'NO8',      
                       NOM_CHAM = 'DEPL',    
                       NOM_CMP = 'DZ',     
                       INST=6.,  
                       PRECISION = (1.5E-2,1.E-5),    
                       VALE = -7.565E-02,        
                     ),

# PRESSION CRITIQUE
                _F(    RESULTAT = U1,    
                       REFERENCE = 'ANALYTIQUE',  
                       NOEUD = 'NO8',      
                       NOM_CHAM = 'VARI_NOEU_ELGA',    
                       NOM_CMP = 'V1',     
                       INST=1.,  
                       PRECISION = (1.E-5,1.E-5),    
                       VALE = 3.E7 ,        
                     ),
                _F(    RESULTAT = U1,    
                       REFERENCE = 'ANALYTIQUE',  
                       NOEUD = 'NO8',      
                       NOM_CHAM = 'VARI_NOEU_ELGA',    
                       NOM_CMP = 'V1',     
                       INST=5.5,  
                       PRECISION = (2.E-3,1.E-5),    
                       VALE = 5.4943E+08 ,        
                     ),
                _F(    RESULTAT = U1,    
                       REFERENCE = 'ANALYTIQUE',  
                       NOEUD = 'NO8',      
                       NOM_CHAM = 'VARI_NOEU_ELGA',    
                       NOM_CMP = 'V1',     
                       INST=6.,  
                       PRECISION = (2.E-2,1.E-5),    
                       VALE = 5.666E+08 ,        
                     ),

# SEUIL HYDRIQUE
                _F(    RESULTAT = U1,    
                       REFERENCE = 'ANALYTIQUE',  
                       NOEUD = 'NO8',      
                       NOM_CHAM = 'VARI_NOEU_ELGA',    
                       NOM_CMP = 'V3',     
                       INST=1.,  
                       PRECISION = (1.E-5,1.E-5),      
                       VALE =  6.00000E+07,       
                     ),
                _F(    RESULTAT = U1,    
                       REFERENCE = 'ANALYTIQUE',  
                       NOEUD = 'NO8',      
                       NOM_CHAM = 'VARI_NOEU_ELGA',    
                       NOM_CMP = 'V3',     
                       INST=5.5,  
                       PRECISION = (1.E-5,1.E-5),      
                       VALE =  6.00000E+07,        
                     ),
                _F(    RESULTAT = U1,    
                       REFERENCE = 'ANALYTIQUE',  
                       NOEUD = 'NO8',      
                       NOM_CHAM = 'VARI_NOEU_ELGA',    
                       NOM_CMP = 'V3',     
                       INST=6.,  
                       PRECISION = (1.E-5,1.E-5),     
                       VALE =  7.00000E+07,        
                     ),                     
                     ),)
                     
IMPR_RESU(RESU=_F(MAILLAGE=MAILLAGE,
                  FORMAT='RESULTAT',
                  RESULTAT=U1,),);
FIN () ;
