# TITRE CHAUFFAGE D UN MILIEU POREUX DESATURE AVEC AIR DISSOUS
# ======================================================================
# COPYRIGHT (C) 1991 - 2012  EDF R&D                  WWW.CODE-ASTER.ORG
# THIS PROGRAM IS FREE SOFTWARE; YOU CAN REDISTRIBUTE IT AND/OR MODIFY
# IT UNDER THE TERMS OF THE GNU GENERAL PUBLIC LICENSE AS PUBLISHED BY
# THE FREE SOFTWARE FOUNDATION; EITHER VERSION 2 OF THE LICENSE, OR
# (AT YOUR OPTION) ANY LATER VERSION.
#
# THIS PROGRAM IS DISTRIBUTED IN THE HOPE THAT IT WILL BE USEFUL, BUT
# WITHOUT ANY WARRANTY; WITHOUT EVEN THE IMPLIED WARRANTY OF
# MERCHANTABILITY OR FITNESS FOR A PARTICULAR PURPOSE. SEE THE GNU
# GENERAL PUBLIC LICENSE FOR MORE DETAILS.
#
# YOU SHOULD HAVE RECEIVED A COPY OF THE GNU GENERAL PUBLIC LICENSE
# ALONG WITH THIS PROGRAM; IF NOT, WRITE TO EDF R&D CODE_ASTER,
#    1 AVENUE DU GENERAL DE GAULLE, 92141 CLAMART CEDEX, FRANCE.
# ======================================================================

DEBUT(CODE=_F(NOM='WTNV130B',NIV_PUB_WEB='INTERNET'),DEBUG=_F(SDVERI='OUI'))



INST1=DEFI_LIST_REEL(DEBUT=0.0,
                     INTERVALLE=_F(
                      JUSQU_A=10.,NOMBRE=1,),);


MAIL=LIRE_MAILLAGE(FORMAT='MED',);

MAIL=DEFI_GROUP(reuse =MAIL,
                MAILLAGE=MAIL,
                CREA_GROUP_NO=(_F(GROUP_MA='BAS',),
                               _F(GROUP_MA='HAUT',),
                               _F(GROUP_MA='GAUCHE',),
                               _F(GROUP_MA='DROITE',),
                               _F(GROUP_MA='AVANT',),
                               _F(GROUP_MA='ARRIERE',),
                               _F(GROUP_MA='CUBE',),
                               ),);

MODELE=AFFE_MODELE(MAILLAGE=MAIL,
                   AFFE=_F(TOUT='OUI',
                           PHENOMENE='MECANIQUE',
                           MODELISATION='3D_THH2S',),);
#


UN=DEFI_CONSTANTE(VALE=1.0,);

ZERO=DEFI_CONSTANTE(VALE=0.0,);

VISCOLIQ=DEFI_CONSTANTE(VALE=1.E-3,);

VISCOGAZ=DEFI_CONSTANTE(VALE=1.8E-05,);

DVISCOL=DEFI_CONSTANTE(VALE=0.0,);

DVISCOG=DEFI_CONSTANTE(VALE=0.0,);

LI2=DEFI_LIST_REEL(DEBUT=0,
                      INTERVALLE=(_F(JUSQU_A=1.E6,
                                     NOMBRE=100,),
                                  _F(JUSQU_A=1.E7,
                                     NOMBRE=100,),
                                  _F(JUSQU_A=1.E8,
                                     NOMBRE=100,),
                                  _F(JUSQU_A=1.E9,
                                     NOMBRE=100,),),);

LI1=DEFI_LIST_REEL(DEBUT=0.1,
                   INTERVALLE=_F(JUSQU_A=0.99,
                                 PAS=1.E-2,),);



HENRY=DEFI_CONSTANTE(VALE=50000.,);


SLO = FORMULE(NOM_PARA='PCAP',VALE='''
                (0.5-1.E-12*(PCAP-3700.+1.E5))''');

SATUBO=CALC_FONC_INTERP(FONCTION=SLO,
                        LIST_PARA=LI2,
                        NOM_PARA='PCAP',
                        PROL_GAUCHE='LINEAIRE',
                        PROL_DROITE='LINEAIRE',
                        INFO=2,);


DSATBO=DEFI_CONSTANTE(VALE=-1.E-12,);


KINTBO=DEFI_CONSTANTE(VALE=1.E-10,);

MATERBO=DEFI_MATERIAU(ELAS=_F(E=5.15E8,
                              NU=0.20,
                              RHO=2670.0,
                              ALPHA=0.,),
                      COMP_THM = 'LIQU_AD_GAZ_VAPE',
                      THM_LIQU=_F(RHO=1000.0,
                                  UN_SUR_K=0.,
                                  ALPHA=0.,
                                  CP=4180.0,
                                  VISC=VISCOLIQ,
                                  D_VISC_TEMP=DVISCOL,),
                      THM_GAZ=_F(MASS_MOL=0.018,
                                 CP=1017.0,
                                 VISC=VISCOGAZ,
                                 D_VISC_TEMP=ZERO,),
                      THM_VAPE_GAZ=_F(MASS_MOL=0.018,
                                      CP=1900.0,
                                      VISC=VISCOGAZ,
                                      D_VISC_TEMP=ZERO,),
                      THM_AIR_DISS=_F(
                                      CP=0.0,
                                      COEF_HENRY=HENRY
                                      ),
                      THM_INIT=_F(TEMP=300.0,
                                  PRE1=0.,
                                  PRE2=1.E5,
                                  PORO=0.3,
                                  PRES_VAPE=3700.0,
                                  ),
                      THM_DIFFU=_F(R_GAZ=8.315,
                                   RHO=2200.0,
                                   CP=1050.0,
                                   BIOT_COEF=1.0,
                                   SATU_PRES=SATUBO,
                                   D_SATU_PRES=DSATBO,
                                   PESA_X=0.0,
                                   PESA_Y=0.0,
                                   PESA_Z=0.0,
                                   PERMIN_X=KINTBO,
                                   PERMIN_Y=KINTBO,
                                   PERMIN_Z=KINTBO,
                                   PERM_LIQU=UN,
                                   D_PERM_LIQU_SATU=ZERO,
                                   PERM_GAZ=UN,
                                   D_PERM_SATU_GAZ=ZERO,
                                   D_PERM_PRES_GAZ=ZERO,
                                   FICKV_T=ZERO,
                                   FICKA_T=ZERO,
                                   LAMB_T=ZERO,),);

CHMAT0=AFFE_MATERIAU(MAILLAGE=MAIL,
                     AFFE=(_F(GROUP_MA='CUBE',
                              MATER=MATERBO,),
                              ),);


CHAMNO=CREA_CHAMP(MAILLAGE=MAIL,
                    OPERATION='AFFE',
                    TYPE_CHAM='NOEU_DEPL_R',
                    AFFE=(_F(TOUT='OUI',
                             NOM_CMP='TEMP',
                             VALE=0.0,),
                          _F(GROUP_NO='CUBE',
                             NOM_CMP='PRE1',
                             VALE=0.,),
                          _F(GROUP_NO='CUBE',
                             NOM_CMP='PRE2',
                             VALE=0.,),
                             ),);


FLUTH=AFFE_CHAR_MECA(MODELE=MODELE,
                       FLUX_THM_REP=_F(GROUP_MA=('GAUCHE','DROITE','BAS','HAUT','AVANT','ARRIERE'),
                                       FLUN=1.E6,
                                       FLUN_HYDR1=0.0,
                                       ),);


SIGINIT=CREA_CHAMP(MAILLAGE=MAIL,
                   OPERATION='AFFE',
                   TYPE_CHAM='CART_SIEF_R',
                   AFFE=(_F(GROUP_MA='CUBE',
                            NOM_CMP=
                            ('M11','FH11X','FH11Y','FH11Z','ENT11',
                             'M12','FH12X','FH12Y','FH12Z','ENT12',
                             'QPRIM','FHTX','FHTY','FHTZ','M21',
                             'FH21X','FH21Y','FH21Z','ENT21',
                             'M22','FH22X', 'FH22Y','FH22Z','ENT22',),
                            VALE=
                            (0.0,0.0,0.0,0.0,0.0,
                             0.0,0.0,0.0,0.0, 2500000.0,
                             0.0,0.0,0.0,0.0,0.0,
                             0.0,0.0,0.0,0.0,
                             0.,0.,0.,0.,0.),),
                             ),  );


U0=STAT_NON_LINE(MODELE=MODELE,
                 CHAM_MATER=CHMAT0,
                 EXCIT=( _F(CHARGE=FLUTH,),),
                 COMP_INCR=_F(RELATION='KIT_THH',PARM_THETA=0.57,
                              RELATION_KIT=('LIQU_AD_GAZ_VAPE','HYDR_UTIL'),
                              ITER_INTE_MAXI=5,),
                 ETAT_INIT=_F(DEPL=CHAMNO,
                              SIGM=SIGINIT,
                              ),
                 INCREMENT=_F(LIST_INST=INST1, ),
                 NEWTON=_F(MATRICE='TANGENTE',
                           REAC_ITER=1,),
                 RECH_LINEAIRE=_F(RESI_LINE_RELA=0.1,
                                  ITER_LINE_MAXI=3,),
                 CONVERGENCE=_F(
                                RESI_GLOB_RELA=1.E-10,
                                ITER_GLOB_MAXI=20),
                 SOLVEUR=_F(METHODE='MULT_FRONT',
                            STOP_SINGULIER='NON',),
                 );
U0=CALC_CHAMP(reuse=U0,CONTRAINTE=('SIEF_ELNO'),VARI_INTERNE=('VARI_ELNO'),RESULTAT=U0)



TEST_RESU(RESU=_F(NUME_ORDRE=1,
                  REFERENCE='ANALYTIQUE',
                  RESULTAT=U0,
                  NOM_CHAM='DEPL',
                  NOEUD='N1',
                  NOM_CMP='TEMP',
                  VALE_CALC=0.215832098,
                  VALE_REFE=0.216,
                  CRITERE='RELATIF',
                  PRECISION=1.E-2,),
          )

TEST_RESU(RESU=_F(NUME_ORDRE=1,
                  REFERENCE='ANALYTIQUE',
                  RESULTAT=U0,
                  NOM_CHAM='DEPL',
                  NOEUD='N1',
                  NOM_CMP='PRE1',
                  VALE_CALC= 1.49927748E+05,
                  VALE_REFE=1.49000E5,
                  CRITERE='RELATIF',
                  PRECISION=1.E-2,),
          )

TEST_RESU(RESU=_F(NUME_ORDRE=1,
                  REFERENCE='ANALYTIQUE',
                  RESULTAT=U0,
                  NOM_CHAM='DEPL',
                  NOEUD='N1',
                  NOM_CMP='PRE2',
                  VALE_CALC=110.207135421,
                  VALE_REFE=113.0,
                  CRITERE='RELATIF',
                  PRECISION=0.05,),
          )


TEST_RESU(RESU=_F(NUME_ORDRE=1,
                  REFERENCE='ANALYTIQUE',
                  RESULTAT=U0,
                  NOM_CHAM='VARI_ELNO',
                  NOEUD='N1',
                  NOM_CMP='V3',
                  VALE_CALC=44.245668923,
                  VALE_REFE=44.0,
                  CRITERE='RELATIF',
                  PRECISION=1.E-2,
                  MAILLE='M1',),
          )

FIN();
