TITRE
CODE_ASTER - 11.00.27 - VERSION DE DEVELOPPEMENT          - FRONTAL1         - L
 FINSF
 %
 COOR_3D
 N1        0.00000000000000E+00  0.00000000000000E+00  0.00000000000000E+00
 N2        1.00000000000000E+00  0.00000000000000E+00  0.00000000000000E+00
 N3        1.00000000000000E+00  1.00000000000000E+00  0.00000000000000E+00
 N4        0.00000000000000E+00  1.00000000000000E+00  0.00000000000000E+00
 N5        0.00000000000000E+00  0.00000000000000E+00  1.00000000000000E+00
 N6        1.00000000000000E+00  0.00000000000000E+00  1.00000000000000E+00
 N7        1.00000000000000E+00  1.00000000000000E+00  1.00000000000000E+00
 N8        0.00000000000000E+00  1.00000000000000E+00  1.00000000000000E+00
 N9        0.00000000000000E+00  0.00000000000000E+00  2.00000000000000E+00
 N10       1.00000000000000E+00  0.00000000000000E+00  2.00000000000000E+00
 N11       1.00000000000000E+00  1.00000000000000E+00  2.00000000000000E+00
 N12       0.00000000000000E+00  1.00000000000000E+00  2.00000000000000E+00
 N13       0.00000000000000E+00  0.00000000000000E+00  3.00000000000000E+00
 N14       1.00000000000000E+00  0.00000000000000E+00  3.00000000000000E+00
 N15       1.00000000000000E+00  1.00000000000000E+00  3.00000000000000E+00
 N16       0.00000000000000E+00  1.00000000000000E+00  3.00000000000000E+00
 N17       0.00000000000000E+00  0.00000000000000E+00  4.00000000000000E+00
 N18       1.00000000000000E+00  0.00000000000000E+00  4.00000000000000E+00
 N19       1.00000000000000E+00  1.00000000000000E+00  4.00000000000000E+00
 N20       0.00000000000000E+00  1.00000000000000E+00  4.00000000000000E+00
 N21       0.00000000000000E+00  0.00000000000000E+00  5.00000000000000E+00
 N22       1.00000000000000E+00  0.00000000000000E+00  5.00000000000000E+00
 N23       1.00000000000000E+00  1.00000000000000E+00  5.00000000000000E+00
 N24       0.00000000000000E+00  1.00000000000000E+00  5.00000000000000E+00
 N101      0.50000000000000E+00  0.50000000000000E+00  0.50000000000000E+00
 N102      0.50000000000000E+00  0.50000000000000E+00  1.50000000000000E+00
 N103      0.50000000000000E+00  0.50000000000000E+00  2.50000000000000E+00
 N104      0.50000000000000E+00  0.50000000000000E+00  3.50000000000000E+00
 N105      0.50000000000000E+00  0.50000000000000E+00  4.50000000000000E+00
 FINSF
 %
 QUAD4   
 M1        N4       N3       N2       N1     
 M2        N21      N22      N23      N24          
 FINSF
 %
 PYRAM5   
 M3       N1       N2       N3       N4      N101
 M4       N2       N3       N7       N6      N101
 M5       N3       N4       N8       N7      N101
 M6       N4       N1       N5       N8      N101
 M7       N1       N2       N6       N5      N101
 M8       N8       N7       N6       N5      N101

 M9       N5       N6       N7       N8      N102
 M10      N6       N7       N11      N10     N102
 M11      N7       N8       N12      N11     N102
 M12      N8       N5       N9       N12     N102
 M13      N5       N6       N10      N9      N102
 M14      N12      N11      N10      N9      N102

 M15      N9       N10      N11      N12     N103
 M16      N10      N11      N15      N14     N103
 M17      N11      N12      N16      N15     N103
 M18      N12      N9       N13      N16     N103
 M19      N9       N10      N14      N13     N103
 M20      N16      N15      N14      N13     N103

 M21      N13      N14      N15      N16     N104
 M22      N14      N15      N19      N18     N104
 M23      N15      N16      N20      N19     N104
 M24      N16      N13      N17      N20     N104
 M25      N13      N14      N18      N17     N104
 M26      N20      N19      N18      N17     N104

 M27      N17      N18      N19      N20     N105
 M28      N18      N19      N23      N22     N105
 M29      N19      N20      N24      N23     N105
 M30      N20      N17      N21      N24     N105
 M31      N17      N18      N22      N21     N105
 M32      N24      N23      N22      N21     N105

 FINSF
 %
 GROUP_MA
 Face_inf                    
 M1      
 FINSF
 %
 GROUP_MA
 Face_sup                 
 M2
 FINSF
 %
 GROUP_MA
 VOL                    
 M3     M4     M5     M6     M7     M8     M9     M10     M11     M12
 M13    M14    M15    M16    M17    M18    M19    M20     M21     M22
 M23    M24    M25    M26    M27    M28    M29    M30     M31     M32
 FINSF
 %
 FIN
