# ======================================================================
# TITRE TEST HHM 2D, CALCUL DECOUPLE (S=0.5, DSDP=0)
# ======================================================================
# COPYRIGHT (C) 1991 - 2012  EDF R&D                  WWW.CODE-ASTER.ORG
# THIS PROGRAM IS FREE SOFTWARE; YOU CAN REDISTRIBUTE IT AND/OR MODIFY
# IT UNDER THE TERMS OF THE GNU GENERAL PUBLIC LICENSE AS PUBLISHED BY
# THE FREE SOFTWARE FOUNDATION; EITHER VERSION 2 OF THE LICENSE, OR
# (AT YOUR OPTION) ANY LATER VERSION.
#
# THIS PROGRAM IS DISTRIBUTED IN THE HOPE THAT IT WILL BE USEFUL, BUT
# WITHOUT ANY WARRANTY; WITHOUT EVEN THE IMPLIED WARRANTY OF
# MERCHANTABILITY OR FITNESS FOR A PARTICULAR PURPOSE. SEE THE GNU
# GENERAL PUBLIC LICENSE FOR MORE DETAILS.
#
# YOU SHOULD HAVE RECEIVED A COPY OF THE GNU GENERAL PUBLIC LICENSE
# ALONG WITH THIS PROGRAM; IF NOT, WRITE TO EDF R&D CODE_ASTER,
#    1 AVENUE DU GENERAL DE GAULLE, 92141 CLAMART CEDEX, FRANCE.
# ======================================================================
# ======================================================================

DEBUT(CODE=_F(NIV_PUB_WEB='INTERNET'), DEBUG=_F(SDVERI='OUI'))

####################################
#   OPERATIONS SUR LE MAILLAGE
#
####################################
MAIL=LIRE_MAILLAGE()

MODELE=AFFE_MODELE(   MAILLAGE=MAIL,
                        AFFE=_F(  TOUT = 'OUI',
                      PHENOMENE = 'MECANIQUE',
                      MODELISATION = 'D_PLAN_HHMS')
                     )

####################################
#  LISTE DES INSTANTS DE CALCUL
####################################
LI=DEFI_LIST_REEL(   DEBUT=0.,INTERVALLE=(
                       _F(  JUSQU_A = 1.E0,  NOMBRE = 1),
                       _F(  JUSQU_A = 5.E0,  NOMBRE = 1),
                       _F(  JUSQU_A = 1.E1,  NOMBRE = 1),
                       _F(  JUSQU_A = 5.E1,  NOMBRE = 1),
                       _F(  JUSQU_A = 1.E2,  NOMBRE = 1),
                       _F(  JUSQU_A = 5.E2,  NOMBRE = 1),
                       _F(  JUSQU_A = 1.E3,  NOMBRE = 1),
                       _F(  JUSQU_A = 5.E3,  NOMBRE = 1),
                       _F(  JUSQU_A = 1.E4,  NOMBRE = 1),
                       _F(  JUSQU_A = 5.E4,  NOMBRE = 1),
                       _F(  JUSQU_A = 1.E5,  NOMBRE = 1),
                       _F(  JUSQU_A = 5.E5,  NOMBRE = 1),
                       _F(  JUSQU_A = 1.E6,  NOMBRE = 1),
                       _F(  JUSQU_A = 5.E6,  NOMBRE = 1),
                       _F(  JUSQU_A = 1.E7,  NOMBRE = 1),
                       _F(  JUSQU_A = 1.E10, NOMBRE = 1))
                     )

ARCHI=DEFI_LIST_REEL(    DEBUT=0.,INTERVALLE=(
                       _F(  JUSQU_A = 1.E0,  NOMBRE = 1),
                       _F(  JUSQU_A = 5.E0,  NOMBRE = 1),
                       _F(  JUSQU_A = 1.E1,  NOMBRE = 1),
                       _F(  JUSQU_A = 5.E1,  NOMBRE = 1),
                       _F(  JUSQU_A = 1.E2,  NOMBRE = 1),
                       _F(  JUSQU_A = 5.E2,  NOMBRE = 1),
                       _F(  JUSQU_A = 1.E3,  NOMBRE = 1),
                       _F(  JUSQU_A = 5.E3,  NOMBRE = 1),
                       _F(  JUSQU_A = 1.E4,  NOMBRE = 1),
                       _F(  JUSQU_A = 5.E4,  NOMBRE = 1),
                       _F(  JUSQU_A = 1.E5,  NOMBRE = 1),
                       _F(  JUSQU_A = 5.E5,  NOMBRE = 1),
                       _F(  JUSQU_A = 1.E6,  NOMBRE = 1),
                       _F(  JUSQU_A = 5.E6,  NOMBRE = 1),
                       _F(  JUSQU_A = 1.E7,  NOMBRE = 1),
                       _F(  JUSQU_A = 1.E10, NOMBRE = 1))
                 )

############################################
#
# DEFINITION DES FONCTIONS DE COMPORTEMENT :
# VISCOSITE LIQUIDE ET GAZ : UNITE : PA.S
#
####
VISCOLIQ=DEFI_CONSTANTE(    VALE=1.E-3)

VISCOGAZ=DEFI_CONSTANTE(    VALE=1.E-5)

DVISCOL=DEFI_CONSTANTE(    VALE=0.)

DVISCOG=DEFI_CONSTANTE(    VALE=0.)

####

#
# AUTRES FONCTIONS DE COMPORTEMENT
# PERMEABILITE INTRINSEQUE, RELATIVE DU LIQUIDE, RELATIVE DU GAZ
# UNITE INTRINSEQUE : METRES CARRES , UNITE RELATIVE : SANS
#
KINT=DEFI_CONSTANTE(    VALE=1.E-18)

DPERGSA=DEFI_CONSTANTE(    VALE=0.)

DPERGPG=DEFI_CONSTANTE(    VALE=0.)


#
#
UN=DEFI_CONSTANTE(    VALE=1.)

ZERO=DEFI_CONSTANTE(    VALE=0.)

SATU=DEFI_CONSTANTE(    VALE=0.5)

MATERIAU=DEFI_MATERIAU(     THM_LIQU=_F(
   RHO = 1000.,
   UN_SUR_K = 1.E-7,
   ALPHA = 1.E-4,
   CP = 2.85E6,
   VISC = VISCOLIQ,
   D_VISC_TEMP = DVISCOL,),
                              THM_GAZ=_F(
   MASS_MOL = 18.E-3,
   CP = 1000.,
   VISC = VISCOGAZ,
   D_VISC_TEMP = DVISCOG,),

                              THM_VAPE_GAZ=_F(
   MASS_MOL = 18.E-3,
   CP = 1870.,
   VISC = VISCOGAZ,
   D_VISC_TEMP = DVISCOG),
                              THM_DIFFU=_F(
   R_GAZ = 8.315,
   RHO = 1.6E3,
   CP = 2.85E6,
   BIOT_COEF = 1.,
   SATU_PRES = SATU,
   D_SATU_PRES = ZERO,
   PESA_X = 0.,
   PESA_Y = -10.,
   PESA_Z = 0.,
   PERM_IN = KINT,
   PERM_LIQU = UN,
   D_PERM_LIQU_SATU = ZERO,
   PERM_GAZ = UN,
   D_PERM_SATU_GAZ = DPERGSA,
   D_PERM_PRES_GAZ = DPERGPG,),
                              THM_INIT=_F(
   TEMP = 273.,
   PRE1 = 0.,
   PRE2 = 1.E5,
   PORO = 0.14,
   PRES_VAPE = 2269.8,
   DEGR_SATU = 0.5),
    COMP_THM = 'LIQU_GAZ',
                                     ELAS=_F(
   E = 40.E9,
   NU = 0.,
   RHO = 2000.,
   ALPHA = 8.E-6)
   )
IMPR_CO(CONCEPT=_F(NOM=MATERIAU)),
CHMAT0=AFFE_MATERIAU(   MAILLAGE=MAIL,
                          AFFE=_F( TOUT = 'OUI',
                        MATER = MATERIAU))

CHARHO=AFFE_CHAR_MECA(   MODELE=MODELE,
                          DDL_IMPO=_F(  TOUT = 'OUI',
                        DX = 0.,
                        DY = 0.)
                                  )

RESU0=STAT_NON_LINE(
                            MODELE=MODELE,
                           SOLVEUR=_F(
                METHODE = 'LDLT'),
                        CHAM_MATER=CHMAT0,
                             EXCIT=_F(
                CHARGE = CHARHO),
                         COMPORTEMENT=_F( PARM_THETA=1.,
                RELATION = 'KIT_HHM',
                ITER_INTE_MAXI = 5,
                RELATION_KIT = (
                  'ELAS',       'LIQU_GAZ',
                  'HYDR_UTIL',  )),
                         INCREMENT=_F(
                LIST_INST = LI),
                            NEWTON=_F(
                MATRICE = 'TANGENTE',
                REAC_ITER = 121),
                       CONVERGENCE=_F(
                RESI_GLOB_RELA = 1.E-6,
                ITER_GLOB_MAXI = 120),
                         ARCHIVAGE=_F(
                LIST_INST = ARCHI)
              )
TEST_RESU(RESU=_F(NUME_ORDRE=1,
                  RESULTAT=RESU0,
                  NOM_CHAM='DEPL',
                  NOEUD='N1',
                  NOM_CMP='PRE1',
                  VALE_CALC=-2.8548756449612E-03,
                  CRITERE='ABSOLU',
                  ),
          )

TEST_RESU(RESU=_F(NUME_ORDRE=1,
                  RESULTAT=RESU0,
                  NOM_CHAM='DEPL',
                  NOEUD='N1',
                  NOM_CMP='PRE2',
                  VALE_CALC=2.265579529507E-06,
                  CRITERE='ABSOLU',
                  ),
          )

TEST_RESU(RESU=_F(NUME_ORDRE=1,
                  RESULTAT=RESU0,
                  NOM_CHAM='DEPL',
                  NOEUD='N3',
                  NOM_CMP='PRE1',
                  VALE_CALC=2.8548756449612E-03,
                  CRITERE='ABSOLU',
                  ),
          )

TEST_RESU(RESU=_F(NUME_ORDRE=1,
                  RESULTAT=RESU0,
                  NOM_CHAM='DEPL',
                  NOEUD='N3',
                  NOM_CMP='PRE2',
                  VALE_CALC=-2.265579529507E-06,
                  CRITERE='ABSOLU',
                  ),
          )

TEST_RESU(RESU=_F(NUME_ORDRE=2,
                  RESULTAT=RESU0,
                  NOM_CHAM='DEPL',
                  NOEUD='N1',
                  NOM_CMP='PRE1',
                  VALE_CALC=-0.014274352119880,
                  CRITERE='ABSOLU',
                  ),
          )

TEST_RESU(RESU=_F(NUME_ORDRE=2,
                  RESULTAT=RESU0,
                  NOM_CHAM='DEPL',
                  NOEUD='N1',
                  NOM_CMP='PRE2',
                  VALE_CALC=1.1327876933713E-05,
                  CRITERE='ABSOLU',
                  ),
          )

TEST_RESU(RESU=_F(NUME_ORDRE=2,
                  RESULTAT=RESU0,
                  NOM_CHAM='DEPL',
                  NOEUD='N3',
                  NOM_CMP='PRE1',
                  VALE_CALC=0.014274352126411,
                  CRITERE='ABSOLU',
                  ),
          )

TEST_RESU(RESU=_F(NUME_ORDRE=2,
                  RESULTAT=RESU0,
                  NOM_CHAM='DEPL',
                  NOEUD='N3',
                  NOM_CMP='PRE2',
                  VALE_CALC=-1.1327876933713E-05,
                  CRITERE='ABSOLU',
                  ),
          )

TEST_RESU(RESU=_F(NUME_ORDRE=3,
                  RESULTAT=RESU0,
                  NOM_CHAM='DEPL',
                  NOEUD='N1',
                  NOM_CMP='PRE1',
                  VALE_CALC=-0.028548656913475,
                  CRITERE='ABSOLU',
                  ),
          )

TEST_RESU(RESU=_F(NUME_ORDRE=3,
                  RESULTAT=RESU0,
                  NOM_CHAM='DEPL',
                  NOEUD='N1',
                  NOM_CMP='PRE2',
                  VALE_CALC=2.2655716323714E-05,
                  CRITERE='ABSOLU',
                  ),
          )

TEST_RESU(RESU=_F(NUME_ORDRE=3,
                  RESULTAT=RESU0,
                  NOM_CHAM='DEPL',
                  NOEUD='N3',
                  NOM_CMP='PRE1',
                  VALE_CALC=0.028548656960821,
                  CRITERE='ABSOLU',
                  ),
          )

TEST_RESU(RESU=_F(NUME_ORDRE=3,
                  RESULTAT=RESU0,
                  NOM_CHAM='DEPL',
                  NOEUD='N3',
                  NOM_CMP='PRE2',
                  VALE_CALC=-2.2655716323714E-05,
                  CRITERE='ABSOLU',
                  ),
          )

TEST_RESU(RESU=_F(NUME_ORDRE=4,
                  REFERENCE='NON_DEFINI',
                  RESULTAT=RESU0,
                  NOM_CHAM='DEPL',
                  NOEUD='N1',
                  NOM_CMP='PRE1',
                  VALE_CALC=-0.14274048500004,
                  VALE_REFE=-0.14269999999999999,
                  CRITERE='RELATIF',
                  PRECISION=1.E-2,
                  ),
          )

TEST_RESU(RESU=_F(NUME_ORDRE=4,
                  RESULTAT=RESU0,
                  NOM_CHAM='DEPL',
                  NOEUD='N1',
                  NOM_CMP='PRE2',
                  VALE_CALC=1.1327636011472E-04,
                  CRITERE='ABSOLU',
                  ),
          )

TEST_RESU(RESU=_F(NUME_ORDRE=4,
                  REFERENCE='NON_DEFINI',
                  RESULTAT=RESU0,
                  NOM_CHAM='DEPL',
                  NOEUD='N3',
                  NOM_CMP='PRE1',
                  VALE_CALC=0.14274048570043,
                  VALE_REFE=0.14269999999999999,
                  CRITERE='RELATIF',
                  PRECISION=1.E-2,
                  ),
          )

TEST_RESU(RESU=_F(NUME_ORDRE=4,
                  RESULTAT=RESU0,
                  NOM_CHAM='DEPL',
                  NOEUD='N3',
                  NOM_CMP='PRE2',
                  VALE_CALC=-1.1327636011472E-04,
                  CRITERE='ABSOLU',
                  ),
          )

TEST_RESU(RESU=_F(NUME_ORDRE=8,
                  REFERENCE='NON_DEFINI',
                  RESULTAT=RESU0,
                  NOM_CHAM='DEPL',
                  NOEUD='N1',
                  NOM_CMP='PRE1',
                  VALE_CALC=-14.240679675807,
                  VALE_REFE=-14.24,
                  CRITERE='RELATIF',
                  PRECISION=1.E-2,
                  ),
          )

TEST_RESU(RESU=_F(NUME_ORDRE=8,
                  RESULTAT=RESU0,
                  NOM_CHAM='DEPL',
                  NOEUD='N1',
                  NOM_CMP='PRE2',
                  VALE_CALC=0.011301157839161,
                  CRITERE='ABSOLU',
                  ),
          )

TEST_RESU(RESU=_F(NUME_ORDRE=8,
                  REFERENCE='NON_DEFINI',
                  RESULTAT=RESU0,
                  NOM_CHAM='DEPL',
                  NOEUD='N3',
                  NOM_CMP='PRE1',
                  VALE_CALC=14.240686663075,
                  VALE_REFE=14.24,
                  CRITERE='RELATIF',
                  PRECISION=1.E-2,
                  ),
          )

TEST_RESU(RESU=_F(NUME_ORDRE=8,
                  RESULTAT=RESU0,
                  NOM_CHAM='DEPL',
                  NOEUD='N3',
                  NOM_CMP='PRE2',
                  VALE_CALC=-0.011301157839161,
                  CRITERE='ABSOLU',
                  ),
          )

TEST_RESU(RESU=_F(NUME_ORDRE=16,
                  REFERENCE='NON_DEFINI',
                  RESULTAT=RESU0,
                  NOM_CHAM='DEPL',
                  NOEUD='N1',
                  NOM_CMP='PRE1',
                  VALE_CALC=-4995.0628917295,
                  VALE_REFE=-4995.0,
                  CRITERE='RELATIF',
                  PRECISION=1.E-2,
                  ),
          )

TEST_RESU(RESU=_F(NUME_ORDRE=16,
                  RESULTAT=RESU0,
                  NOM_CHAM='DEPL',
                  NOEUD='N1',
                  NOM_CMP='PRE2',
                  VALE_CALC=3.9647336615299,
                  CRITERE='ABSOLU',
                  ),
          )

TEST_RESU(RESU=_F(NUME_ORDRE=16,
                  REFERENCE='NON_DEFINI',
                  RESULTAT=RESU0,
                  NOM_CHAM='DEPL',
                  NOEUD='N3',
                  NOM_CMP='PRE1',
                  VALE_CALC=4996.9252681897,
                  VALE_REFE=4997.0,
                  CRITERE='RELATIF',
                  PRECISION=1.E-2,
                  ),
          )

TEST_RESU(RESU=_F(NUME_ORDRE=16,
                  RESULTAT=RESU0,
                  NOM_CHAM='DEPL',
                  NOEUD='N3',
                  NOM_CMP='PRE2',
                  VALE_CALC=-3.9647336615302,
                  CRITERE='ABSOLU',
                  ),
          )

FIN()
