# MODIF  DATE 17/02/2009   AUTEUR SELLENET N.SELLENET 
# TITRE  SUIVI PERFORMANCE : FLUAGE SAS FLAMANVILLE
# yyyy117a.para = tps_job 1450 mem_job 1900Mo ncpus 1 liste_test L
#            CONFIGURATION MANAGEMENT OF EDF VERSION
# ======================================================================
# COPYRIGHT (C) 1991 - 2001  EDF R&D                  WWW.CODE-ASTER.ORG
# THIS PROGRAM IS FREE SOFTWARE; YOU CAN REDISTRIBUTE IT AND/OR MODIFY
# IT UNDER THE TERMS OF THE GNU GENERAL PUBLIC LICENSE AS PUBLISHED BY
# THE FREE SOFTWARE FOUNDATION; EITHER VERSION 2 OF THE LICENSE, OR   
# (AT YOUR OPTION) ANY LATER VERSION.                                 
#
# THIS PROGRAM IS DISTRIBUTED IN THE HOPE THAT IT WILL BE USEFUL, BUT 
# WITHOUT ANY WARRANTY; WITHOUT EVEN THE IMPLIED WARRANTY OF          
# MERCHANTABILITY OR FITNESS FOR A PARTICULAR PURPOSE. SEE THE GNU    
# GENERAL PUBLIC LICENSE FOR MORE DETAILS.                            
#
# YOU SHOULD HAVE RECEIVED A COPY OF THE GNU GENERAL PUBLIC LICENSE   
# ALONG WITH THIS PROGRAM; IF NOT, WRITE TO EDF R&D CODE_ASTER,       
#    1 AVENUE DU GENERAL DE GAULLE, 92141 CLAMART CEDEX, FRANCE.      
# ======================================================================
#--------------------------------------------------

DEBUT(CODE=_F( NOM = 'YYYY117A',NIV_PUB_WEB='INTRANET'))

MAIL=LIRE_MAILLAGE()

MAIL=DEFI_GROUP( reuse=MAIL,  MAILLAGE=MAIL,CREA_GROUP_NO=(
                      _F( GROUP_MA = 'SURF4COC'),
                      _F( GROUP_MA = 'SURF2COC'),
                      _F( GROUP_MA = 'SURF4BRI'),
                      _F( GROUP_MA = 'SURF2BRI'),
                      _F( GROUP_MA = 'BETON'),
                      _F( GROUP_MA = 'SURFCL'),
                      _F( GROUP_MA = 'COCSAS'),
                      _F( GROUP_MA = 'COCINT'),
                      _F( GROUP_MA = 'COLLER1'),
                      _F( GROUP_MA = 'COLLER2'),
                      _F( GROUP_MA = 'BRIDEINT'),
                      _F( GROUP_MA = 'CPTOT'))
                   )

MODELE=AFFE_MODELE(    MAILLAGE=MAIL,AFFE=(
                         _F( GROUP_MA = ('BETON','SURFCL',),
                       PHENOMENE = 'MECANIQUE',
                       MODELISATION = '3D'),
                         _F( GROUP_MA = 'CPTOT',
                       PHENOMENE = 'MECANIQUE',
                       MODELISATION = 'BARRE'),
                         _F( GROUP_MA = ('COCSAS','COCINT','COLLER1',
                                           'COLLER2',),
                       PHENOMENE = 'MECANIQUE',
                       MODELISATION = 'DKT'),
                         _F( GROUP_MA = ('BRIDEINT',),
                       PHENOMENE = 'MECANIQUE',
                       MODELISATION = 'POU_D_E'))
                       )

# DONNEES POUR FLUAGE
# ATTENTION A NE PAS OUBLIER A METTRE LE SECHAGE
# SINON PAR DEFAUT ZERO ET DONC NE FLUE PAS
SECH=CREA_CHAMP(  OPERATION='AFFE', TYPE_CHAM='NOEU_TEMP_R',
                     MAILLAGE=MAIL,AFFE=(
              _F( TOUT = 'OUI',  NOM_CMP = 'TEMP',  VALE = 0.),
           #   _F( GROUP_NO = ('BETON','SURFCL',),
              _F( GROUP_NO = ('BETON','SURFCL','CPTOT',),
                    NOM_CMP = 'TEMP',
                    VALE = 1.))
                       )

TEMP=CREA_CHAMP(  OPERATION='AFFE', TYPE_CHAM='NOEU_TEMP_R',
                     MAILLAGE=MAIL,AFFE=(
                         _F(
                               GROUP_NO = ('BETON','SURFCL','CPTOT','BRIDEINT',),
                               NOM_CMP = 'TEMP',
                               VALE = 20.),
                         _F(
                               GROUP_NO = ('COCSAS','COCINT',
                                              'COLLER1','COLLER2',),
                               NOM_CMP = 'TEMP',
                               VALE = 20.),
                       ),);


# FONCTION DE SORPTION-DESORPTION POUR PASSER DE LA VARIABLE SECHAGE
# A L HYGROMETRIE
FONC1=DEFI_FONCTION(
           NOM_PARA='SECH',PROL_DROITE='LINEAIRE',PROL_GAUCHE='LINEAIRE',
           VALE=(0.0, 0.0, 1.,  1.,)
           )

# FONCTION DE VIEILLISSEMENT
# ICI LE TEMPS 0 CORRESPOND A 28 JOURS
VIEIL=DEFI_FONCTION(
           NOM_PARA='INST',PROL_DROITE='LINEAIRE',PROL_GAUCHE='LINEAIRE',
            VALE=(
                  0.,        1.,
                  5.,       0.9692038,
                  10.,      0.94348186,
                  20.,      0.90231172,
                  30.,      0.87022337,
                  40.,      0.8440982,
                  50.,      0.82216838,
                  100.,      0.7474562,
                  150.,      0.70138567,
                  200.,      0.66861059,
                  250.,      0.64343258,
                  300.,      0.62313418,
                  350.,      0.60621679,
                  400.,      0.59177042,
                  450.,      0.57920309,
                  500.,      0.56810915,
                  700.,      0.53368229,
                  900.,      0.50902167,
                  1100.,      0.49000172,
                  1300.,      0.47462848,
# ... 6 like lines cut

                 )
                      )
E=DEFI_CONSTANTE (VALE=  31000.E+06 )

NU=DEFI_CONSTANTE (VALE=  0.22 )

ALPHA =DEFI_CONSTANTE (VALE= 0.)


BETON=DEFI_MATERIAU(    ELAS_FO=_F( E = E,
                                    NU = NU,
                                    ALPHA = ALPHA,
                                    TEMP_DEF_ALPHA = 20.0,
                                    RHO = 2500.,
                                    FONC_DESORP = FONC1),
                        BPEL_BETON=_F(),
                        GRANGER_FP=_F( J1 = 0.00012E-9,
                            TAUX_1 = 0.002,
                            J2 = 0.00026E-9,
                            TAUX_2 = 0.002E+1,
                            J3 = 0.00088E-9,
                            TAUX_3 = 0.002E+2,
                            J4 = 0.00271E-9,
                            TAUX_4 = 0.002E+3,
                            J5 = 0.00808E-9,
                            TAUX_5 = 0.002E+4,
                            J6 = 0.01808E-9,
                            TAUX_6 = 0.002E+5,
                            J7 = 0.01901E-9,
                            TAUX_7 = 0.002E+6,
                            J8 = 0.01139E-9,
                            TAUX_8 = 0.002E+7,),
                          V_GRANGER_FP=_F( FONC_V = VIEIL)
                      )

ACIER=DEFI_MATERIAU(    ELAS=_F( E = 192000.E+06,
                                NU = 0.3,
                                ALPHA = 0.,
                                RHO = 7850.),
                          ECRO_LINE=_F( D_SIGM_EPSI = 1.690E+9,
                                     SY = 3.55E+9),
                          BPEL_ACIER=_F(F_PRG = 3.55E+9,
                              FROT_COURB = 0.,
                              FROT_LINE = 0.)
                      )

CHMAT=AFFE_MATERIAU(   MAILLAGE=MAIL,AFFE=(
                         _F( GROUP_MA = ('BETON','CPTOT'),
                               MATER = BETON,),
                         _F( GROUP_MA = ('COCSAS','COCINT','COLLER1',
                                'COLLER2','BRIDEINT','CPTOT',),
                               MATER = ACIER)),
                        AFFE_VARC=(_F(NOM_VARC='SECH', CHAMP_GD=SECH,VALE_REF=1),
                                   _F(NOM_VARC='TEMP', CHAMP_GD=TEMP,VALE_REF=0),),
                      )

CARAELEM=AFFE_CARA_ELEM(    MODELE=MODELE,
BARRE=(
                     _F( GROUP_MA = ('GCBHEH',),
                            SECTION = 'GENERALE',
                            CARA = 'A',
                            VALE = 257.E-4),
                     _F( GROUP_MA = ('CABLEH6',),
                            SECTION = 'GENERALE',
                            CARA = 'A',
                            VALE = 128.5E-4),
                     _F( GROUP_MA = ('GCBVV',),
                            SECTION = 'GENERALE',
                            CARA = 'A',
                            VALE = 147.9E-4),
                     _F( GROUP_MA = ('CABLEV27',),
                            SECTION = 'GENERALE',
                            CARA = 'A',
                            VALE = 73.95E-4),
                     _F( GROUP_MA = ('TOT',),
                            SECTION = 'GENERALE',
                            CARA = 'A',
                            VALE = 51.43E-4),
                     _F( GROUP_MA = ('CPSEP',),
                            SECTION = 'GENERALE',
                            CARA = 'A',
                            VALE = 16.68E-4)),COQUE=(
                     _F( GROUP_MA = 'COCSAS',
                            A_CIS = 0.833,
                            EPAIS = 0.02),
                     _F( GROUP_MA = 'COCINT',
                            A_CIS = 0.833,
                            EPAIS = 0.035),
                     _F( GROUP_MA = ('COLLER1','COLLER2',),
                            A_CIS = 0.833,
                            EPAIS = 0.035)),
                    POUTRE=_F( GROUP_MA = 'BRIDEINT',
                            SECTION = 'GENERALE',
                            CARA = ('A','IZ','IY','JX',),
#                 VALE : (0.0098,4.E-6,64.E-6,12.5E-6)
                  VALE = (0.0077,3.1E-6,31.E-6,12.5E-6,))
                         )

CABLEH1=DEFI_CABLE_BP(            MODELE=MODELE,
                                  CHAM_MATER=CHMAT,
                                   CARA_ELEM=CARAELEM,
                              GROUP_MA_BETON='BETON',DEFI_CABLE=(
                                  _F(
                               GROUP_MA = 'CA76',
                               GROUP_NO_ANCRAGE = ( 'S76',   'D76',),  ),
                                  _F(
                               GROUP_MA = 'CA77',
                               GROUP_NO_ANCRAGE = ( 'S77',   'D77',),  ),
                                  _F(
                               GROUP_MA = 'CA78',
                               GROUP_NO_ANCRAGE = ( 'S78',   'D78',),  ),
                                  _F(
                               GROUP_MA = 'CA79',
                               GROUP_NO_ANCRAGE = ( 'S79',   'D79',),  ),
                                  _F(
                               GROUP_MA = 'CA80',
                               GROUP_NO_ANCRAGE = ( 'S80',   'D80',),  ),
                                  _F(
                               GROUP_MA = 'CA81',
                               GROUP_NO_ANCRAGE = ( 'S81',   'D81',),  ),
                                  _F(
                               GROUP_MA = 'CA82',
                               GROUP_NO_ANCRAGE = ( 'S82',   'D82',),  ),
                                  _F(
                               GROUP_MA = 'CA83',
                               GROUP_NO_ANCRAGE = ( 'S83',   'D83',),  ),
                                  _F(
                               GROUP_MA = 'CA84',
                               GROUP_NO_ANCRAGE = ( 'S84',   'D84',),  ),
                                  _F(
                               GROUP_MA = 'CA85',
                               GROUP_NO_ANCRAGE = ( 'S85',   'D85',),  ),
                                  _F(
                               GROUP_MA = 'CA86',
                               GROUP_NO_ANCRAGE = ( 'S86',   'D86',),  ),
                                  _F(
                               GROUP_MA = 'CA87',
                               GROUP_NO_ANCRAGE = ( 'S87',   'D87',),  ),
                                  _F(
                               GROUP_MA = 'CA88',
                               GROUP_NO_ANCRAGE = ( 'S88',   'D88',),  ),
                                  _F(
                               GROUP_MA = 'CA89',
                               GROUP_NO_ANCRAGE = ( 'S89',   'D89',),  ),
                                  _F(
                               GROUP_MA = 'CA90',
                               GROUP_NO_ANCRAGE = ( 'S90',   'D90',),  ),
                                  _F(
                               GROUP_MA = 'CA91',
                               GROUP_NO_ANCRAGE = ( 'S91',   'D91',),  ),
                                  _F(
                               GROUP_MA = 'CA92',
                               GROUP_NO_ANCRAGE = ( 'S92',   'D92',),  ),
                                  _F(
                               GROUP_MA = 'CA93',
                               GROUP_NO_ANCRAGE = ( 'S93',   'D93',),  ),
                                  _F(
                               GROUP_MA = 'CA94',
                               GROUP_NO_ANCRAGE = ( 'S94',   'D94',),  ),
                                  _F(
                               GROUP_MA = 'CA95',
                                GROUP_NO_ANCRAGE = ( 'S95',  'D95',),  ),
                                  _F(
                               GROUP_MA = 'CA96',
                               GROUP_NO_ANCRAGE = ( 'S96',   'D96',),  ),
                                  _F(
                               GROUP_MA = 'CA97',
                               GROUP_NO_ANCRAGE = ( 'S97',   'D97',),  ),
                                  _F(
                               GROUP_MA = 'CA98',
                               GROUP_NO_ANCRAGE = ( 'S98',   'D98',),  ),
                                  _F(
                               GROUP_MA = 'CA99',
                               GROUP_NO_ANCRAGE = ( 'S99',   'D99',),  ),
                                  _F(
                               GROUP_MA = 'CA100',
                               GROUP_NO_ANCRAGE = ( 'S100',   'D100',),  ),
                                  _F(
                               GROUP_MA = 'CA101',
                               GROUP_NO_ANCRAGE = ( 'S101',   'D101',),  ),
                                  _F(
                               GROUP_MA = 'CA102',
                               GROUP_NO_ANCRAGE = ( 'S102',   'D102',),  ),
                                  _F(
                               GROUP_MA = 'CA103',
                               GROUP_NO_ANCRAGE = ( 'S103',   'D103',),  ),
                                  _F(
                               GROUP_MA = 'CA104',
                               GROUP_NO_ANCRAGE = ( 'S104',   'D104',),  ),
                                  _F(
                               GROUP_MA = 'CA105',
                                GROUP_NO_ANCRAGE = ( 'S105',  'D105',),  ),
                                  _F(
                               GROUP_MA = 'CA106',
                               GROUP_NO_ANCRAGE = ( 'S106',   'D106',),  ),
                                  _F(
                               GROUP_MA = 'CA107',
                               GROUP_NO_ANCRAGE = ( 'S107',   'D107',),  ),  ),
                               TYPE_ANCRAGE = ( 'PASSIF',  'ACTIF',  ),
                                TENSION_INIT=5.56E+6,
                               RECUL_ANCRAGE=0.
                            )

CABLEH2=DEFI_CABLE_BP(            MODELE=MODELE,
                                  CHAM_MATER=CHMAT,
                                   CARA_ELEM=CARAELEM,
                              GROUP_MA_BETON='BETON',DEFI_CABLE=(
                                  _F(
                               GROUP_MA = 'CABLEH1',
                               GROUP_NO_ANCRAGE = ( 'A1', 'B1',),  ),
                                  _F(
                               GROUP_MA = 'CABLEH2',
                               GROUP_NO_ANCRAGE = ( 'A2', 'B2',),  ),
                                  _F(
                               GROUP_MA = 'CABLEH3',
                               GROUP_NO_ANCRAGE = ( 'A3', 'B3',),  ),
                                  _F(
                               GROUP_MA = 'CABLEH4',
                               GROUP_NO_ANCRAGE = ( 'A4', 'B4',),  ),
                                  _F(
                               GROUP_MA = 'CABLEH5',
                               GROUP_NO_ANCRAGE = ( 'A5', 'B5',),  ),  ),
                               TYPE_ANCRAGE = ( 'ACTIF',  'PASSIF',  ),
                                TENSION_INIT=27.79E+06,
                               RECUL_ANCRAGE=0.
                               )

CABLEH3=DEFI_CABLE_BP(            MODELE=MODELE,
                                  CHAM_MATER=CHMAT,
                                   CARA_ELEM=CARAELEM,
                              GROUP_MA_BETON='BETON',
                                  DEFI_CABLE=_F(
                               GROUP_MA = 'CABLEH6',
                               GROUP_NO_ANCRAGE = ( 'A6', 'B6',),  ),
                               TYPE_ANCRAGE = ( 'ACTIF',  'PASSIF',  ),
                                TENSION_INIT=0.E+06,

                               RECUL_ANCRAGE=0.
                               )

CABLEV1=DEFI_CABLE_BP(            MODELE=MODELE,
                                  CHAM_MATER=CHMAT,
                                   CARA_ELEM=CARAELEM,
                              GROUP_MA_BETON='BETON',DEFI_CABLE=(

                                  _F(
                               GROUP_MA = 'VL97P',
                               GROUP_NO_ANCRAGE = ( 'VA97P', 'VB97P',),  ),
                                  _F(
                               GROUP_MA = 'VL98P',
                               GROUP_NO_ANCRAGE = ( 'VA98P', 'VB98P',),  ),
                                  _F(
                               GROUP_MA = 'VL99P',
                               GROUP_NO_ANCRAGE = ( 'VA99P', 'VB99P',),  ),

                                  _F(
                               GROUP_MA = 'VL100P',
                               GROUP_NO_ANCRAGE = ( 'VA100P', 'VB100P',),  ),
                                  _F(
                               GROUP_MA = 'VL101P',
                               GROUP_NO_ANCRAGE = ( 'VA101P', 'VB101P',),  ),
                                  _F(
                               GROUP_MA = 'VL102P',
                               GROUP_NO_ANCRAGE = ( 'VA102P', 'VB102P',),  ),
                                  _F(
                               GROUP_MA = 'VL103P',
                               GROUP_NO_ANCRAGE = ( 'VA103P', 'VB103P',),  ),
                                  _F(
                               GROUP_MA = 'VL104P',
                               GROUP_NO_ANCRAGE = ( 'VA104P', 'VB104P',),  ),
                                  _F(
                               GROUP_MA = 'VL105P',
                               GROUP_NO_ANCRAGE = ( 'VA105P', 'VB105P',),  ),
                                  _F(
                               GROUP_MA = 'VL106P',
                               GROUP_NO_ANCRAGE = ( 'VA106P', 'VB106P',),  ),
                                  _F(

                               GROUP_MA = 'VL107P',
                               GROUP_NO_ANCRAGE = ( 'VA107', 'VB107',),  ),
                                  _F(
                               GROUP_MA = 'VL108P',
                               GROUP_NO_ANCRAGE = ( 'VA108', 'VB108',),  ),
                                  _F(
                               GROUP_MA = 'VL109P',
                               GROUP_NO_ANCRAGE = ( 'VA109', 'VB109',),  ),
                                  _F(
                               GROUP_MA = 'VL110P',
                               GROUP_NO_ANCRAGE = ( 'VA110', 'VB110',),  ),
                                  _F(
                               GROUP_MA = 'VL111P',
                               GROUP_NO_ANCRAGE = ( 'VA111', 'VB111',),  ),  ),
                               TYPE_ANCRAGE = ( 'PASSIF',  'ACTIF',  ),
                                TENSION_INIT=7.22E+6,
                               RECUL_ANCRAGE=0. )

CABLEV2=DEFI_CABLE_BP(            MODELE=MODELE,
                                  CHAM_MATER=CHMAT,
                                   CARA_ELEM=CARAELEM,
                              GROUP_MA_BETON='BETON',DEFI_CABLE=(

                                  _F(
                               GROUP_MA = 'CABLEV1',
                               GROUP_NO_ANCRAGE = ( 'C1', 'D1',),  ),
                                  _F(
                               GROUP_MA = 'CABLEV2',
                               GROUP_NO_ANCRAGE = ( 'C2', 'D2',),  ),
                                  _F(
                               GROUP_MA = 'CABLEV3',
                               GROUP_NO_ANCRAGE = ( 'C3', 'D3',),  ),
                                  _F(
                               GROUP_MA = 'CABLEV4',
                               GROUP_NO_ANCRAGE = ( 'C4', 'D4',),  ),
                                  _F(
                               GROUP_MA = 'CABLEV5',
                               GROUP_NO_ANCRAGE = ( 'C5', 'D5',),  ),
                                  _F(
                               GROUP_MA = 'CABLEV6',
                               GROUP_NO_ANCRAGE = ( 'C6', 'D6',),  ),
                                  _F(
                               GROUP_MA = 'CABLEV7',
                               GROUP_NO_ANCRAGE = ( 'C7', 'D7',),  ),
                                  _F(
                               GROUP_MA = 'CABLEV8',
                               GROUP_NO_ANCRAGE = ( 'C8', 'D8',),  ),
                                  _F(
                               GROUP_MA = 'CABLEV9',
                               GROUP_NO_ANCRAGE = ( 'C9', 'D9',),  ),
                                  _F(
                               GROUP_MA = 'CABLEV10',
                               GROUP_NO_ANCRAGE = ( 'C10', 'D10',),  ),
                                  _F(
                               GROUP_MA = 'CABLEV11',
                               GROUP_NO_ANCRAGE = ( 'C11', 'D11',),  ),
                                  _F(
                               GROUP_MA = 'CABLEV12',
                               GROUP_NO_ANCRAGE = ( 'C12', 'D12',),  ),
                                  _F(
                               GROUP_MA = 'CABLEV13',
                               GROUP_NO_ANCRAGE = ( 'C13', 'D13',),  ),
                                  _F(
                               GROUP_MA = 'CABLEV14',
                               GROUP_NO_ANCRAGE = ( 'C14', 'D14',),  ),

                                  _F(
                               GROUP_MA = 'CABLEV15',
                               GROUP_NO_ANCRAGE = ( 'C15', 'D15',),  ),
                                  _F(
                               GROUP_MA = 'CABLEV16',
                               GROUP_NO_ANCRAGE = ( 'C16', 'D16',),  ),
                                  _F(
                               GROUP_MA = 'CABLEV17',
                               GROUP_NO_ANCRAGE = ( 'C17', 'D17',),  ),
                                  _F(
                               GROUP_MA = 'CABLEV18',
                               GROUP_NO_ANCRAGE = ( 'C18', 'D18',),  ),
                                  _F(
                               GROUP_MA = 'CABLEV19',
                               GROUP_NO_ANCRAGE = ( 'C19', 'D19',),  ),
                                  _F(
                               GROUP_MA = 'CABLEV20',
                               GROUP_NO_ANCRAGE = ( 'C20', 'D20',),  ),
                                  _F(
                               GROUP_MA = 'CABLEV21',
                               GROUP_NO_ANCRAGE = ( 'C21', 'D21',),  ),
                                  _F(
                               GROUP_MA = 'CABLEV22',
                               GROUP_NO_ANCRAGE = ( 'C22', 'D22',),  ),
                                  _F(
                               GROUP_MA = 'CABLEV23',
                               GROUP_NO_ANCRAGE = ( 'C23', 'D23',),  ),
                                  _F(
                               GROUP_MA = 'CABLEV24',
                               GROUP_NO_ANCRAGE = ( 'C24', 'D24',),  ),
                                  _F(
                               GROUP_MA = 'CABLEV25',
                               GROUP_NO_ANCRAGE = ( 'C25', 'D25',),  ),
                                  _F(
                               GROUP_MA = 'CABLEV26',
                               GROUP_NO_ANCRAGE = ( 'C26', 'D26',),  ),  ),
                               TYPE_ANCRAGE = ( 'ACTIF',  'PASSIF',  ),
                                TENSION_INIT=20.32E+06,
                               RECUL_ANCRAGE=0. )

CABLEV3=DEFI_CABLE_BP(            MODELE=MODELE,
                                  CHAM_MATER=CHMAT,
                                   CARA_ELEM=CARAELEM,
                              GROUP_MA_BETON='BETON',

                                  DEFI_CABLE=_F(
                               GROUP_MA = 'CABLEV27',
                               GROUP_NO_ANCRAGE = ( 'C27', 'D27',),  ),
                               TYPE_ANCRAGE = ( 'ACTIF',  'PASSIF',  ),
                                TENSION_INIT=10.16E+06,
                               RECUL_ANCRAGE=0. )

CABLESEP=DEFI_CABLE_BP(            MODELE=MODELE,
                                  CHAM_MATER=CHMAT,
                                   CARA_ELEM=CARAELEM,
                              GROUP_MA_BETON='BETON',DEFI_CABLE=(

                                  _F(
                               GROUP_MA = 'ABSEP1',
                               GROUP_NO_ANCRAGE = ( 'ASEP1', 'BSEP1',),  ),
                                  _F(
                               GROUP_MA = 'ABSEP2',
                               GROUP_NO_ANCRAGE = ( 'ASEP2', 'BSEP2',),  ),
                                  _F(
                               GROUP_MA = 'ABSEP3',
                               GROUP_NO_ANCRAGE = ( 'ASEP3', 'BSEP3',),  ),
                                  _F(
                               GROUP_MA = 'ABSEP4',
                               GROUP_NO_ANCRAGE = ( 'ASEP4', 'BSEP4',),  ),
                                  _F(
                               GROUP_MA = 'ABSEP5',
                               GROUP_NO_ANCRAGE = ( 'ASEP5', 'BSEP5',),  ),  ),
                               TYPE_ANCRAGE = ( 'ACTIF',  'PASSIF',  ),
                                TENSION_INIT=2.31E+6,
                               RECUL_ANCRAGE=0. )

LIST=DEFI_LIST_REEL(  DEBUT=0.0,INTERVALLE=(

             _F( JUSQU_A = 10.0,       NOMBRE = 2),
             _F( JUSQU_A = 50.0,       NOMBRE = 4),
             _F( JUSQU_A = 500.,     NOMBRE = 10),
             _F( JUSQU_A = 1500.,     NOMBRE = 5),
             _F( JUSQU_A = 3000.,     NOMBRE = 4))
           )

CHARGE0=AFFE_CHAR_MECA(   MODELE=MODELE,
                            PESANTEUR=(9.8,0.,0.,-1.,)
                         )

CHARGE1=AFFE_CHAR_MECA(   MODELE=MODELE,FACE_IMPO=(
                          _F( GROUP_MA = 'SURF2',
                                    DX = 0.),
                          _F( GROUP_MA = 'SURF4',
                                     DZ = 0.),
                          _F( GROUP_MA = 'SURF3',
                                     DX = 0.,
                                     DY = 0.)),DDL_IMPO=(
                 _F( GROUP_NO = ('SURF2COC',),
                           DX = 0.),
                 _F( GROUP_NO = ('SURF4COC',),
                           DZ = 0.))
                         )

CHARGE2=AFFE_CHAR_MECA(   MODELE=MODELE,
                           PRES_REP=_F( GROUP_MA = 'SURF3',
                                    PRES = 0.636E+06)
                         )

CHARGE3=AFFE_CHAR_MECA(   MODELE=MODELE,RELA_CINE_BP=(
               _F(  CABLE_BP = CABLEH1,
                               SIGM_BPEL = 'OUI',
                               RELA_CINE = 'OUI'),
               _F(  CABLE_BP = CABLEH2,
                               SIGM_BPEL = 'OUI',
                               RELA_CINE = 'OUI'),
               _F(  CABLE_BP = CABLEH3,
                               SIGM_BPEL = 'OUI',
                               RELA_CINE = 'OUI'),
               _F(  CABLE_BP = CABLEV1,
                               SIGM_BPEL = 'OUI',
                               RELA_CINE = 'OUI'),
               _F(  CABLE_BP = CABLEV2,
                               SIGM_BPEL = 'OUI',
                               RELA_CINE = 'OUI'),
               _F(  CABLE_BP = CABLEV3,
                               SIGM_BPEL = 'OUI',
                               RELA_CINE = 'OUI'),
               _F(  CABLE_BP = CABLESEP,
                               SIGM_BPEL = 'OUI',
                               RELA_CINE = 'OUI'))
                         )

RESU1=STAT_NON_LINE(   MODELE=MODELE,
                       CHAM_MATER=CHMAT,
                        CARA_ELEM=CARAELEM,EXCIT=(
                        _F( CHARGE = CHARGE0),
                              _F( CHARGE = CHARGE1),
                              _F( CHARGE = CHARGE2),
                              _F( CHARGE = CHARGE3)),COMP_INCR=(
                        _F( RELATION = 'ELAS',
                                   GROUP_MA = (
                                                   'BRIDEINT',)),
                         _F( RELATION = 'GRANGER_FP_V',
                                   GROUP_MA = ('BETON', 'SURFCL',),
                                   ITER_INTE_MAXI = 50,),

                        _F( RELATION = 'VMIS_ISOT_LINE',
                                   GROUP_MA = 'CPTOT',
                                   ITER_INTE_MAXI = 50,),
                        _F( RELATION = 'ELAS',
                                   GROUP_MA = ('COCSAS','COCINT',
                                               'COLLER1','COLLER2',),
               )),
                        INCREMENT=_F( LIST_INST = LIST,
                                   NUME_INST_FIN = 1),

                       NEWTON=_F( MATRICE = 'ELASTIQUE'),
                      CONVERGENCE=_F( RESI_GLOB_MAXI = 1.E-4,
                                      ITER_GLOB_MAXI = 300),
                           SOLVEUR=_F( METHODE = 'MULT_FRONT', RENUM = 'MD')

                     )

TEST_RESU(RESU=(
            _F( RESULTAT = RESU1,
             NOM_CHAM = 'DEPL',
             NUME_ORDRE = 1,
             NOEUD = 'N17066',
             NOM_CMP = 'DX',
             VALE = 1.3161006290610E-03,
             REFERENCE = 'NON_REGRESSION',
             VERSION='6.1.6',
             PRECISION = 1.E-4),
             _F( RESULTAT = RESU1,
             NOM_CHAM = 'DEPL',
             NUME_ORDRE = 1,
             NOEUD = 'N6808',
             NOM_CMP = 'DY',
             VALE = 1.2239504898328E-02,
             REFERENCE = 'NON_REGRESSION',
             VERSION='6.1.6',
             PRECISION = 1.E-4),
             _F( RESULTAT = RESU1,
             NOM_CHAM = 'DEPL',
             NUME_ORDRE = 1,
             NOEUD = 'N16602',
             NOM_CMP = 'DZ',
             VALE = 4.1846119975095E-04,
             REFERENCE = 'NON_REGRESSION',
             VERSION='6.1.6',
             PRECISION = 1.E-4))
            )

FIN()
