
# MODIF  DATE 17/02/2009   AUTEUR SELLENET N.SELLENET 
# TITRE CUVE DE REACTEUR - ANALYSE MODALE
# yyyy110a.para = tps_job 510 mem_job 400Mo ncpus 1 liste_test S
#            CONFIGURATION MANAGEMENT OF EDF VERSION
# ======================================================================
# COPYRIGHT (C) 1991 - 2001  EDF R&D                  WWW.CODE-ASTER.ORG
# THIS PROGRAM IS FREE SOFTWARE; YOU CAN REDISTRIBUTE IT AND/OR MODIFY
# IT UNDER THE TERMS OF THE GNU GENERAL PUBLIC LICENSE AS PUBLISHED BY
# THE FREE SOFTWARE FOUNDATION; EITHER VERSION 2 OF THE LICENSE, OR   
# (AT YOUR OPTION) ANY LATER VERSION.                                 
#
# THIS PROGRAM IS DISTRIBUTED IN THE HOPE THAT IT WILL BE USEFUL, BUT 
# WITHOUT ANY WARRANTY; WITHOUT EVEN THE IMPLIED WARRANTY OF          
# MERCHANTABILITY OR FITNESS FOR A PARTICULAR PURPOSE. SEE THE GNU    
# GENERAL PUBLIC LICENSE FOR MORE DETAILS.                            
#
# YOU SHOULD HAVE RECEIVED A COPY OF THE GNU GENERAL PUBLIC LICENSE   
# ALONG WITH THIS PROGRAM; IF NOT, WRITE TO EDF R&D CODE_ASTER,       
#    1 AVENUE DU GENERAL DE GAULLE, 92141 CLAMART CEDEX, FRANCE.      
# ======================================================================
#        RESOLUTION : LDLT - RENUM  : RCMK
#---------------------------------------------------
#
#      CUVE, PLAQUE DES INTERNES SUP.
#      CALCUL D'UNE BASE MODALE 
#
#---------------------------------------------------

DEBUT(CODE=_F(NOM='YYYY110A',
              NIV_PUB_WEB='INTRANET',),);

MAYA=LIRE_MAILLAGE();

MODL=AFFE_MODELE(MAILLAGE=MAYA,
                 AFFE=(_F(GROUP_MA='MANCHONS',
                          PHENOMENE='MECANIQUE',
                          MODELISATION='POU_D_T',),
                       _F(GROUP_MA='CUVE_TUB',
                          PHENOMENE='MECANIQUE',
                          MODELISATION='DKT',),
                       _F(GROUP_MA='SUPGUID',
                          PHENOMENE='MECANIQUE',
                          MODELISATION='DKT',),
                       _F(GROUP_MA='RENF_SUP',
                          PHENOMENE='MECANIQUE',
                          MODELISATION='DKT',),),);
#
#PARAMETRES
Z = 0.0;


IMANCH=2.6876E-04/64;

JMANCH=2.6876E-04/32;

SMANCH=2.8098E-01/64;
#

ACIER=DEFI_MATERIAU(ELAS=_F(E=210000000000.0,
                            NU=0.3,
                            RHO=7850.0,),);

MANCHON=DEFI_MATERIAU(ELAS=_F(E=315000000000.0,
                              NU=0.3,
                              RHO=7850.0,),);
#

CHMAT=AFFE_MATERIAU(MAILLAGE=MAYA,
                    AFFE=(_F(GROUP_MA='CUVE_TUB',
                             MATER=ACIER,),
                          _F(GROUP_MA='SUPGUID',
                             MATER=ACIER,),
                          _F(GROUP_MA='RENF_SUP',
                             MATER=ACIER,),
                          _F(GROUP_MA='MANCHONS',
                             MATER=MANCHON,),),);
#

PARAM=AFFE_CARA_ELEM(MODELE=MODL,
                     POUTRE=_F(GROUP_MA='MANCHONS',
                               SECTION='GENERALE',
                               CARA=('A','IZ','IY','JX','AY','AZ',),
                               VALE=(SMANCH,IMANCH,IMANCH,JMANCH,Z,Z,),),
                     COQUE=(_F(GROUP_MA='CUVE_128',
                               EPAIS=0.128,),
                            _F(GROUP_MA='CUVE_060',
                               EPAIS=0.06,),
                            _F(GROUP_MA='CUVE_200',
                               EPAIS=0.2,),
                            _F(GROUP_MA='CUVE_230',
                               EPAIS=0.23,),
                            _F(GROUP_MA='CUVE_450',
                               EPAIS=0.45,),
                            _F(GROUP_MA='CUVE_160',
                               EPAIS=0.16,),
                            _F(GROUP_MA='CUVE_252',
                               EPAIS=0.252,),
                            _F(GROUP_MA='CUVE_264',
                               EPAIS=0.264,),
                            _F(GROUP_MA='CUVE_166',
                               EPAIS=0.166,),
                            _F(GROUP_MA='CUVE_170',
                               EPAIS=0.17,),
                            _F(GROUP_MA='CUVE_81',
                               EPAIS=0.081,),
                            _F(GROUP_MA='CUVE_77',
                               EPAIS=0.077,),
                            _F(GROUP_MA='SUPGUID',
                               EPAIS=0.1143,),
                            _F(GROUP_MA='RENF_SUP',
                               EPAIS=0.043,),),);

CONDLIM=AFFE_CHAR_MECA(MODELE=MODL,
                       DDL_IMPO=(_F(GROUP_NO='SUPP_CUV',
                                    DX=0.0,
                                    DY=0.0,
                                    DZ=0.0,
                                    DRX=0.0,
                                    DRY=0.0,
                                    DRZ=0.0,),
                                 _F(GROUP_NO='ENCASS1',
                                    DX=0.0,
                                    DY=0.0,
                                    DZ=0.0,
                                    DRX=0.0,
                                    DRY=0.0,
                                    DRZ=0.0,),),);

K_ELEM1=CALC_MATR_ELEM(OPTION='RIGI_MECA',
                       MODELE=MODL,
                       CHAM_MATER=CHMAT,
                       CARA_ELEM=PARAM,
                       CHARGE=CONDLIM,);

M_ELEM1=CALC_MATR_ELEM(OPTION='MASS_MECA',
                       MODELE=MODL,
                       CHAM_MATER=CHMAT,
                       CARA_ELEM=PARAM,
                       CHARGE=CONDLIM,);
#

NUM1=NUME_DDL(MATR_RIGI=K_ELEM1,
              METHODE='LDLT',
              RENUM='RCMK',);
#

K_ASSE1=ASSE_MATRICE(MATR_ELEM=K_ELEM1,
                     NUME_DDL=NUM1,);
#

M_ASSE1=ASSE_MATRICE(MATR_ELEM=M_ELEM1,
                     NUME_DDL=NUM1,);
#

MODES=MODE_ITER_SIMULT(MATR_A=K_ASSE1,
                       MATR_B=M_ASSE1,
                       CALC_FREQ=_F(OPTION='BANDE',
                                    FREQ=(1.0,100.0,),),
                       VERI_MODE=_F(STOP_ERREUR='OUI',
                                    STURM='NON',),);
#

TEST_RESU(RESU=(_F(RESULTAT=MODES,
                   NUME_ORDRE=1,
                   PARA='FREQ',
                   VALE=46.77,
                   CRITERE='RELATIF',
                   REFERENCE='NON_REGRESSION',
                   PRECISION=0.001,),
                _F(RESULTAT=MODES,
                   NUME_ORDRE=2,
                   PARA='FREQ',
                   VALE=46.95,
                   CRITERE='RELATIF',
                   REFERENCE='NON_REGRESSION',
                   PRECISION=0.001,),
                _F(RESULTAT=MODES,
                   NUME_ORDRE=3,
                   PARA='FREQ',
                   VALE=85.89,
                   CRITERE='RELATIF',
                   REFERENCE='NON_REGRESSION',
                   PRECISION=0.001,),
                _F(RESULTAT=MODES,
                   NUME_ORDRE=4,
                   PARA='FREQ',
                   VALE=85.94,
                   CRITERE='RELATIF',
                   REFERENCE='NON_REGRESSION',
                   PRECISION=0.001,),),);

FIN();
#
#
