# MODIF  DATE 17/05/2005   AUTEUR DURAND C.DURAND 
# TITRE IMPR_STURM SUR UN GROS MODELE 3D
#            CONFIGURATION MANAGEMENT OF EDF VERSION
# ======================================================================
# COPYRIGHT (C) 1991 - 2001  EDF R&D                  WWW.CODE-ASTER.ORG
# THIS PROGRAM IS FREE SOFTWARE; YOU CAN REDISTRIBUTE IT AND/OR MODIFY
# IT UNDER THE TERMS OF THE GNU GENERAL PUBLIC LICENSE AS PUBLISHED BY
# THE FREE SOFTWARE FOUNDATION; EITHER VERSION 2 OF THE LICENSE, OR   
# (AT YOUR OPTION) ANY LATER VERSION.                                 
#
# THIS PROGRAM IS DISTRIBUTED IN THE HOPE THAT IT WILL BE USEFUL, BUT 
# WITHOUT ANY WARRANTY; WITHOUT EVEN THE IMPLIED WARRANTY OF          
# MERCHANTABILITY OR FITNESS FOR A PARTICULAR PURPOSE. SEE THE GNU    
# GENERAL PUBLIC LICENSE FOR MORE DETAILS.                            
#
# YOU SHOULD HAVE RECEIVED A COPY OF THE GNU GENERAL PUBLIC LICENSE   
# ALONG WITH THIS PROGRAM; IF NOT, WRITE TO EDF R&D CODE_ASTER,       
#    1 AVENUE DU GENERAL DE GAULLE, 92141 CLAMART CEDEX, FRANCE.      
# ======================================================================
# CAS_TEST__:YYYY115A
#
#**************************************************************
#*     MODELE  3D DU BATIMENT REACTEUR DE CIVAUX              *
#* AVEC INTEGRATION DU CPP MODELE LINEAIRE DE TYPE JEU INFINI *
#*  LE SOL MOU (E=444 MPA) EST REPRESENTE PAR UN RESSORT      *
#*   DETERMINATION DES ACCELEROGRAMMES AUX ANCRAGES DU CPP    *
#*                                                            *
#**************************************************************

DEBUT( CODE=_F( NOM = 'YYYY115A',NIV_PUB_WEB='INTRANET') )
# cas test en diffusion INTRANET car fichier de maillage superieure a 2Mo

#
# LECTURE  DES MAILLAGES
#           BR
#-------------------------------
#
MAILTOT=LIRE_MAILLAGE(  )

#
# CONSTRUCTION DU MODELE
#--------------------------------------------------------------------
#
MODELE=AFFE_MODELE(   MAILLAGE=MAILTOT,AFFE=(
# BR
#----
                        _F(  GROUP_MA = ('E_INTER',
                                           'E_FEN',
                                           'E_RAD',),
                               PHENOMENE = 'MECANIQUE',
                               MODELISATION = '3D'),
                             _F(  GROUP_MA = ('M_DO_I_A',
                                           'M_DO_I_B',
                                           'M_DO_E_A',
                                           'M_DO_E_B',
                                           'M_DO_E_C',
                                           'M_FU_E',
                                           'M_RIG',
                                           'M_FU_I_A',
                                           'M_FU_I_B',
                                           'M_FU_I_D',
                                           'M_FU_I_F',
                                           'M_FU_I_G',
                                           'M_FU_I_H',
                                           'PONT',),
                               PHENOMENE = 'MECANIQUE',
                               MODELISATION = 'COQUE_3D'),
#
#MASSE DU TENON
#
                        _F(  GROUP_NO = (
                                                'N_TENON',
                                                'N_NERV',
                                              ),
                               PHENOMENE = 'MECANIQUE',
                               MODELISATION = 'DIS_T'),
#
#  CPP
#----------------------
#
#POUTRES
             _F(  GROUP_MA = ( 'PPE2',
                                 'PPE3',
                                 'PPE4',
                                 'PPE5',
                                 'PPE6',
                                 'PPE7',
                                 'CORCUV1',
                                 'CORCUV2',
                                 'CORCUV3',
                                 'CORCUV4',
                                 'CORCUV5',
                                 'CORCUV6',
                                 'RIGICU',
                                 'RIGIANN', # HYPOTHESE GAUTIER
                                 'SUPCUH',  # HYPOTHESE GAUTIER
                                 'RIGPP',
                                 'EXIPPV',  # HYPOTHESE GAUTIER
                                 'BCD',
                                 'EXIGV',
                                 'EXIGVV', # HYPOTHESE GAUTIER
                                 'GVE1',
                                 'GVE2',
                                 'GVE3',
                                 'GVE4',
                                 'GVE5',
                                 'GVE6',
                                 'GVE7',
                                 'GVE8',
                                 'GVE9',
                                 'BUD',
                                 'BFD',
                                 ),
                    PHENOMENE = 'MECANIQUE',
                    MODELISATION = 'POU_D_T'),
#COUDES
             _F(  GROUP_MA = ( 'BCC',
                                 'BUCE1', 'BUCE2', 'BUCE3',
                                 'BFC',
                               ),
                    PHENOMENE = 'MECANIQUE',
                    MODELISATION = 'POU_C_T'),
#ELEMENTS DISCRETS SEG2
             _F(  GROUP_MA = ( 'PP12',
                                 'PP11',
                                 'PP14',
                                 'PP13',
                                 'PP82',
                                 'PP81',
                                 'PP84',
                                 'PP83',
                                 'GVFS22',
                                 'GVFS21',
                                 'GVFS24',
                                 'GVFS23',
                                 'GVFS12',
                                 'GVFS11',
                                 'GVFS14',
                                 'GVFS13',
#RESSORTS
                                 'SUPCUV',
                                 'BEQGV',
                                 'BEQPP',
                                 'DABPP1',
                                 'DABPP2',
                                 'DABPP3',
#
#MASSES PONCTUELLES POI1
                                 'MASGV1',
                                 'MASGV2',
                                 'MASGV3',
                                 'MASGV4',
                                 'MASGV5',
                                 'MASGV6',
                                 'MASGV7',
                                 'MASPP8',
                                 'MASPP7',
                                 'MASPP6',
                                 'MASPP5',
                                 'MASPP4',
                                 'MASPP3',
                                 'MASPP2',
                                 'MASPP1',
                               ),
                    PHENOMENE = 'MECANIQUE',
                    MODELISATION = 'DIS_TR'),
             _F(  GROUP_MA = ( 'MASCU1',
                                 'MASCU2',
                                 'MASCU3',
                                 'MASCU4',
                                 'MASCU5',
                                 'MASCU6',
                                 'MASCU7',
                               ),
                    PHENOMENE = 'MECANIQUE',
                    MODELISATION = 'DIS_TR'),
# RESSORT DE SOL
             _F(  GROUP_MA = 'LIAI_SOL',
                    PHENOMENE = 'MECANIQUE',
                    MODELISATION = 'DIS_TR'))
            )

#
# DEFINITION DES MATERIAUX UTILISES
#--------------------------------------------------------------------
#      BR
#-------------------------
#
BETON=DEFI_MATERIAU(ELAS=_F( E = 4.0E+10, 
                            NU = 0.1494252874,
                            RHO = 2516.)
                      )

RIGID=DEFI_MATERIAU(    ELAS=_F(  E = 1.9E14,
                                NU = 0.30,
                                RHO = 1.)
                         )

#      CPP
#-------------------------
#
ACIERCUV=DEFI_MATERIAU(    ELAS=_F(  E = 1.9E11,
                                NU = 0.30,
                                RHO = 7850.)
                         )

MATCUV1=DEFI_MATERIAU(    ELAS=_F(  E = 1.9E11,
                                NU = 0.30,
                                RHO = 11800.)
                         )

RIGIDE=DEFI_MATERIAU(    ELAS=_F(  E = 1.9E14,
                                NU = 0.30,
                                RHO = 1.)
                         )

MATCUV2=DEFI_MATERIAU(    ELAS=_F(  E = 1.9E11,
                                NU = 0.30,
                                RHO = 17350.)
                         )

MATBRANC=DEFI_MATERIAU(    ELAS=_F(  E = 1.75E11,
                                NU = 0.30,
                                RHO = 9650.)
                         )

MATGV1=DEFI_MATERIAU(    ELAS=_F(  E = 1.9E11,
                                NU = 0.30,
                                RHO = 9268.)
                         )

MATGV23=DEFI_MATERIAU(    ELAS=_F(  E = 1.9E11,
                                NU = 0.30,
                                RHO = 8076.)
                         )

MATGV4=DEFI_MATERIAU(    ELAS=_F(  E = 1.9E11,
                                NU = 0.30,
                                RHO = 14000.)
                         )

MATGV5=DEFI_MATERIAU(    ELAS=_F(  E = 1.9E11,
                                NU = 0.30,
                                RHO = 16260.)
                         )

MATGV6=DEFI_MATERIAU(    ELAS=_F(  E = 1.9E11,
                                 NU = 0.30,
                                 RHO = 15870.)
                         )

MATGV7=DEFI_MATERIAU(    ELAS=_F(  E = 1.9E11,
                                 NU = 0.30,
                                 RHO = 13950.)
                         )

MATGV8=DEFI_MATERIAU(    ELAS=_F(  E = 1.9E11,
                                 NU = 0.30,
                                 RHO = 12610.)
                         )

MATGV9=DEFI_MATERIAU(    ELAS=_F(  E = 1.9E11,
                                 NU = 0.30,
                                 RHO = 10970.)
                         )

MATPP6=DEFI_MATERIAU(    ELAS=_F(  E = 2.1E11,
                                 NU = 0.30,
                                 RHO = 54100.)
                         )

MATPP5=DEFI_MATERIAU(    ELAS=_F(  E = 2.1E11,
                                 NU = 0.30,
                                 RHO = 28300.)
                         )

MATPP4=DEFI_MATERIAU(    ELAS=_F(  E = 2.0E11,
                                 NU = 0.30,
                                 RHO = 13490.)
                         )

MATPP3=DEFI_MATERIAU(    ELAS=_F(  E = 1.99E11,
                                 NU = 0.30,
                                 RHO = 17240.)
                         )

MATPP2=DEFI_MATERIAU(    ELAS=_F(  E = 1.8E11,
                                 NU = 0.30,
                                 RHO = 9381.)
                         )

#
# DEFINITION DU CHAMP DE MATIERE
#--------------------------------------------------------------------
#      BR
#-------------------------
#
CHMAT=AFFE_MATERIAU(   MAILLAGE=MAILTOT,AFFE=(
                         _F(  GROUP_MA = ('E_INTER',
                                            'E_FEN',
                                            'E_RAD',
                                            'M_DO_I_A',
                                            'M_DO_I_B',
                                            'M_DO_E_A',
                                            'M_DO_E_B',
                                            'M_DO_E_C',
                                            'M_FU_E',
                                            'M_FU_I_A',
                                            'M_FU_I_B',
                                            'M_FU_I_D',
                                            'M_FU_I_F',
                                            'M_FU_I_G',
                                            'M_FU_I_H',
                                            'PONT',),
                                MATER = BETON),
                              _F(  GROUP_MA = 'M_RIG',
                                MATER = RIGID),
#      CPP
#-------------------------
#
             _F(  GROUP_MA = ( 'CORCUV1',  'CORCUV6', 'SUPCUH', ),
                    MATER = ACIERCUV),
                  _F(  GROUP_MA = ( 'CORCUV2', 'CORCUV4', 'CORCUV5', ),
                    MATER = MATCUV1),
                  _F(  GROUP_MA = ( 'RIGICU',
                                 'RIGIANN',
                                 'EXIGV',
                                 'EXIGVV',
                                 'EXIPPV',
                                 'RIGPP',
                                 'PPE7',
                               ),
                    MATER = RIGIDE),
                  _F(  GROUP_MA = ( 'CORCUV3', ),
                    MATER = MATCUV2),
                  _F(  GROUP_MA = ( 'BC',
                                 'BU',
                                 'BF',
                               ),
                    MATER = MATBRANC),
                  _F(  GROUP_MA = ( 'GVE1', ),
                    MATER = MATGV1),
                  _F(  GROUP_MA = ( 'GVE2', 'GVE3', ),
                    MATER = MATGV23),
                  _F(  GROUP_MA = ( 'GVE4', ),
                    MATER = MATGV4),
                  _F(  GROUP_MA = ( 'GVE5', ),
                    MATER = MATGV5),
                  _F(  GROUP_MA = ( 'GVE6', ),
                    MATER = MATGV6),
                  _F(  GROUP_MA = ( 'GVE7', ),
                    MATER = MATGV7),
                  _F(  GROUP_MA = ( 'GVE8', ),
                    MATER = MATGV8),
                  _F(  GROUP_MA = ( 'GVE9', ),
                    MATER = MATGV9),
                  _F(  GROUP_MA = ( 'PPE2', ),
                    MATER = MATPP2),
                  _F(  GROUP_MA = ( 'PPE3', ),
                    MATER = MATPP3),
                  _F(  GROUP_MA = ( 'PPE4', ),
                    MATER = MATPP4),
                  _F(  GROUP_MA = ( 'PPE5', ),
                    MATER = MATPP5),
                  _F(  GROUP_MA = ( 'PPE6', ),
                    MATER = MATPP6))
                        )

#
# DEFINITION DES CARACTERISTIQUE DES POUTRES (SECTION, INERTIE )
#--------------------------------------------------------------------
#   BR
#---------------------
#
CARA=AFFE_CARA_ELEM( 
                              MODELE=MODELE,
                             MASSIF=_F(  GROUP_MA = (
                                                 'E_INTER',
                                                 'E_FEN',
                                                 'E_RAD',
                                                ),
                                    ANGL_REP = (0., 0., 0.,)),COQUE=(
                             _F(  GROUP_MA = 'M_DO_I_A',
                                     A_CIS = 0.8333333333, EPAIS = .9),
                             _F(  GROUP_MA = 'M_DO_I_B',
                                     A_CIS = 0.8333333333, EPAIS = 1.8),
                             _F( GROUP_MA = 'M_DO_E_A',
                                     A_CIS = 0.8333333333, EPAIS = .4),
                             _F( GROUP_MA = 'M_DO_E_B',
                                     A_CIS = 0.8333333333, EPAIS = .7),
                             _F( GROUP_MA = 'M_DO_E_C',
                                     A_CIS = 0.8333333333, EPAIS = 1.3),
                             _F( GROUP_MA = 'M_FU_E',
                                     A_CIS = 0.8333333333, EPAIS = .55),
                             _F( GROUP_MA = 'M_FU_I_A',
                                     A_CIS = 0.8333333333, EPAIS = .3),
                             _F( GROUP_MA = 'M_FU_I_B',
                                     A_CIS = 0.8333333333, EPAIS = 1.2),
                             _F( GROUP_MA = 'M_FU_I_D',
                                     A_CIS = 0.8333333333, EPAIS = 1.2),
                             _F( GROUP_MA = 'M_FU_I_F',
                                     A_CIS = 0.8333333333, EPAIS = 1.2),
                             _F( GROUP_MA = 'M_FU_I_G',
                                     A_CIS = 0.8333333333, EPAIS = 1.2),
                             _F( GROUP_MA = 'M_FU_I_H',
                                     A_CIS = 0.8333333333, EPAIS = 3.2),
                             _F( GROUP_MA = 'PONT',
                                     A_CIS = 0.8333333333, EPAIS = .85),
                             _F( GROUP_MA = 'M_RIG',
                                     A_CIS = 0.8333333333, EPAIS = .1)),DISCRET=(
                             _F(  GROUP_NO = ( 'N_TENON', ),
                                       CARA = 'M_T_D_N',
                                       VALE = (
                                                     4861.1,
#    680.55 T / 140 NOEUDS = 4.86 T
                                                   )),
                                     _F(  GROUP_NO = ( 'N_NERV',  ),
                                       CARA = 'M_T_D_N',
                                       VALE = (
                                                     19500.0,
#    1326 T / 68 NOEUDS = 19.5 T
                                                   )),
#
# DEFINITION DES ELEMENTS DISCRETS
# POMPE_PRIMA._BOUCLE_N._3_ELEMENT_NUMERO:0242
    _F(  GROUP_MA = ( 'PP13', ),
              CARA = 'K_TR_L',
              VALE = (
                          0.26150E+11,

                         -0.35000E+09,
                          0.26150E+11,

                          0.20577E+09,
                         -0.20577E+09,
                          0.50900E+11,

                          0.38500E+09,
                         -0.24650E+10,
                         -0.44053E+09,
                          0.79900E+10,

                          0.24650E+10,
                         -0.38500E+09,
                         -0.44053E+09,
                          0.10000E+08,
                          0.79900E+10,

                          0.18455E+09,
                          0.18455E+09,
                               0.,
                         -0.98288E+08,
                          0.98288E+08,
                          0.11200E+11,

                         -0.26150E+11,
                          0.35000E+09,
                         -0.20577E+09,
                         -0.38500E+09,
                         -0.24650E+10,
                         -0.18455E+09,
                          0.26150E+11,

                          0.35000E+09,
                         -0.26150E+11,
                          0.20577E+09,
                          0.24650E+10,
                          0.38500E+09,
                         -0.18455E+09,
                         -0.35000E+09,
                          0.26150E+11,

                         -0.20577E+09,
                          0.20577E+09,
                         -0.50900E+11,
                          0.44053E+09,
                          0.44053E+09,
                               0.,
                          0.20577E+09,
                         -0.20577E+09,
                          0.50900E+11,

                          0.15000E+09,
                         -0.27750E+11,
                          0.51619E+09,
                         -0.51450E+10,
                          0.41500E+09,
                         -0.91924E+08,
                         -0.15000E+09,
                          0.27750E+11,
                         -0.51619E+09,
                          0.37300E+11,

                          0.27750E+11,
                         -0.15000E+09,
                          0.51619E+09,
                          0.41500E+09,
                         -0.51450E+10,
                          0.91924E+08,
                         -0.27750E+11,
                          0.15000E+09,
                         -0.51619E+09,
                         -0.10000E+09,
                          0.37300E+11,

                         -0.18455E+09,
                         -0.18455E+09,
                               0.,
                          0.98288E+08,
                         -0.98288E+08,
                         -0.11200E+11,
                          0.18455E+09,
                          0.18455E+09,
                               0.,
                          0.91924E+08,
                         -0.91924E+08,
                          0.11200E+11,
                       )),
#POMPE_PRIMA._BOUCLE_N._4_ELEMENT_NUMERO:0241
            _F(  GROUP_MA = ( 'PP14', ),
              CARA = 'K_TR_L',
              VALE = (

                          0.26150E+11,

                          0.35000E+09,
                          0.26150E+11,

                         -0.20577E+09,
                         -0.20577E+09,
                          0.50900E+11,

                         -0.38500E+09,
                         -0.24650E+10,
                         -0.44053E+09,
                          0.79900E+10,

                          0.24650E+10,
                          0.38500E+09,
                          0.44053E+09,
                         -0.10000E+08,
                          0.79900E+10,

                          0.18455E+09,
                         -0.18455E+09,
                               0.,
                          0.98288E+08,
                          0.98288E+08,
                          0.11200E+11,

                         -0.26150E+11,
                         -0.35000E+09,
                          0.20577E+09,
                          0.38500E+09,
                         -0.24650E+10,
                         -0.18455E+09,
                          0.26150E+11,

                         -0.35000E+09,
                         -0.26150E+11,
                          0.20577E+09,
                          0.24650E+10,
                         -0.38500E+09,
                          0.18455E+09,
                          0.35000E+09,
                          0.26150E+11,

                          0.20577E+09,
                          0.20577E+09,
                         -0.50900E+11,
                          0.44053E+09,
                         -0.44053E+09,
                               0.,
                         -0.20577E+09,
                         -0.20577E+09,
                          0.50900E+11,

                         -0.15000E+09,
                         -0.27750E+11,
                          0.51619E+09,
                         -0.51450E+10,
                         -0.41500E+09,
                          0.91924E+08,
                          0.15000E+09,
                          0.27750E+11,
                         -0.51619E+09,
                          0.37300E+11,

                          0.27750E+11,
                          0.15000E+09,
                         -0.51619E+09,
                         -0.41500E+09,
                         -0.51450E+10,
                          0.91924E+08,
                         -0.27750E+11,
                         -0.15000E+09,
                          0.51619E+09,
                          0.10000E+09,
                          0.37300E+11,

                         -0.18455E+09,
                          0.18455E+09,
                               0.,
                         -0.98288E+08,
                         -0.98288E+08,
                         -0.11200E+11,
                          0.18455E+09,
                         -0.18455E+09,
                               0.,
                         -0.91924E+08,
                         -0.91924E+08,
                          0.11200E+11,
                    )),
#POMPE_PRIMA._BOUCLE_N._1_ELEMENT_NUMERO:0240
            _F(  GROUP_MA = ( 'PP11', ),
              CARA = 'K_TR_L',
              VALE = (

                          0.26150E+11,

                         -0.35000E+09,
                          0.26150E+11,

                         -0.20577E+09,
                          0.20577E+09,
                          0.50900E+11,

                          0.38500E+09,
                         -0.24650E+10,
                          0.44053E+09,
                          0.79900E+10,

                          0.24650E+10,
                         -0.38500E+09,
                          0.44053E+09,
                          0.10000E+08,
                          0.79900E+10,

                         -0.18455E+09,
                         -0.18455E+09,
                               0.,
                          0.98288E+08,
                         -0.98288E+08,
                          0.11200E+11,

                         -0.26150E+11,
                          0.35000E+09,
                          0.20577E+09,
                         -0.38500E+09,
                         -0.24650E+10,
                          0.18455E+09,
                          0.26150E+11,

                          0.35000E+09,
                         -0.26150E+11,
                         -0.20577E+09,
                          0.24650E+10,
                          0.38500E+09,
                          0.18455E+09,
                         -0.35000E+09,
                          0.26150E+11,

                          0.20577E+09,
                         -0.20577E+09,
                         -0.50900E+11,
                         -0.44053E+09,
                         -0.44053E+09,
                               0.,
                         -0.20577E+09,
                          0.20577E+09,
                          0.50900E+11,

                          0.15000E+09,
                         -0.27750E+11,
                         -0.51619E+09,
                         -0.51450E+10,
                          0.41500E+09,
                          0.91924E+08,
                         -0.15000E+09,
                          0.27750E+11,
                          0.51619E+09,
                          0.37300E+11,

                          0.27750E+11,
                         -0.15000E+09,
                         -0.51619E+09,
                          0.41500E+09,
                         -0.51450E+10,
                         -0.91924E+08,
                         -0.27750E+11,
                          0.15000E+09,
                          0.51619E+09,
                         -0.10000E+09,
                          0.37300E+11,

                          0.18455E+09,
                          0.18455E+09,
                               0.,
                         -0.98288E+08,
                          0.98288E+08,
                         -0.11200E+11,
                         -0.18455E+09,
                         -0.18455E+09,
                               0.,
                         -0.91924E+08,
                          0.91924E+08,
                          0.11200E+11,
                    )),
#POMPE_PRIMA._BOUCLE_N._2_ELEMENT_NUMERO:0239
            _F(  GROUP_MA = ( 'PP12', ),
              CARA = 'K_TR_L',
              VALE = (
                          0.26150E+11,

                          0.35000E+09,
                          0.26150E+11,

                          0.20577E+09,
                          0.20577E+09,
                          0.50900E+11,

                         -0.38500E+09,
                         -0.24650E+10,
                          0.44053E+09,
                          0.79900E+10,

                          0.24650E+10,
                          0.38500E+09,
                         -0.44053E+09,
                         -0.10000E+08,
                          0.79900E+10,

                         -0.18455E+09,
                          0.18455E+09,
                               0.,
                         -0.98288E+08,
                         -0.98288E+08,
                          0.11200E+11,

                         -0.26150E+11,
                         -0.35000E+09,
                         -0.20577E+09,
                          0.38500E+09,
                         -0.24650E+10,
                          0.18455E+09,
                          0.26150E+11,

                         -0.35000E+09,
                         -0.26150E+11,
                         -0.20577E+09,
                          0.24650E+10,
                         -0.38500E+09,
                         -0.18455E+09,
                          0.35000E+09,
                          0.26150E+11,

                         -0.20577E+09,
                         -0.20577E+09,
                         -0.50900E+11,
                         -0.44053E+09,
                          0.44053E+09,
                               0.,
                          0.20577E+09,
                          0.20577E+09,
                          0.50900E+11,

                         -0.15000E+09,
                         -0.27750E+11,
                         -0.51619E+09,
                         -0.51450E+10,
                         -0.41500E+09,
                         -0.91924E+08,
                          0.15000E+09,
                          0.27750E+11,
                          0.51619E+09,
                          0.37300E+11,

                          0.27750E+11,
                          0.15000E+09,
                          0.51619E+09,
                         -0.41500E+09,
                         -0.51450E+10,
                         -0.91924E+08,
                         -0.27750E+11,
                         -0.15000E+09,
                         -0.51619E+09,
                          0.10000E+09,
                          0.37300E+11,

                          0.18455E+09,
                         -0.18455E+09,
                               0.,
                          0.98288E+08,
                          0.98288E+08,
                         -0.11200E+11,
                         -0.18455E+09,
                          0.18455E+09,
                               0.,
                          0.91924E+08,
                          0.91924E+08,
                          0.11200E+11,
                    )),
#POMPE_PRIMA._BOUCLE_N._3_ELEMENT_NUMERO:0270
            _F(  GROUP_MA = ( 'PP83', ),
              CARA = 'K_TR_L',
              VALE = (
                          0.26900E+11,

                         -0.14200E+11,
                          0.26900E+11,

                         -0.98995E+09,
                          0.98995E+09,
                          0.10800E+11,

                         -0.13347E+10,
                          0.12353E+10,
                          0.11172E+11,
                          0.16825E+11,

                         -0.12353E+10,
                          0.13347E+10,
                          0.11172E+11,
                          0.11475E+11,
                          0.16825E+11,

                         -0.13576E+11,
                         -0.13576E+11,
                               0.,
                          0.16334E+09,
                         -0.16334E+09,
                          0.34400E+11,

                         -0.26900E+11,
                          0.14200E+11,
                          0.98995E+09,
                          0.13347E+10,
                          0.12353E+10,
                          0.13576E+11,
                          0.26900E+11,

                          0.14200E+11,
                         -0.26900E+11,
                         -0.98995E+09,
                         -0.12353E+10,
                         -0.13347E+10,
                          0.13576E+11,
                         -0.14200E+11,
                          0.26900E+11,

                          0.98995E+09,
                         -0.98995E+09,
                         -0.10800E+11,
                         -0.11172E+11,
                         -0.11172E+11,
                               0.,
                         -0.98995E+09,
                          0.98995E+09,
                          0.10800E+11,

                          0.14070E+09,
                         -0.41300E+08,
                          0.19092E+10,
                         -0.32950E+10,
                          0.20550E+10,
                         -0.16334E+09,
                         -0.14070E+09,
                          0.41300E+08,
                         -0.19092E+10,
                          0.56000E+10,

                          0.41300E+08,
                         -0.14070E+09,
                          0.19092E+10,
                          0.20550E+10,
                         -0.32950E+10,
                          0.16334E+09,
                         -0.41300E+08,
                          0.14070E+09,
                         -0.19092E+10,
                          0.25000E+09,
                          0.56000E+10,

                         -0.17041E+10,
                         -0.17041E+10,
                               0.,
                         -0.43558E+08,
                          0.43558E+08,
                         -0.16000E+10,
                          0.17041E+10,
                          0.17041E+10,
                               0.,
                          0.43558E+08,
                         -0.43558E+08,
                          0.57200E+10,
                    )),
#POMPE_PRIMA._BOUCLE_N._4_ELEMENT_NUMERO:0269
            _F(  GROUP_MA = ( 'PP84', ),
              CARA = 'K_TR_L',
              VALE = (
                          0.26900E+11,

                          0.14200E+11,
                          0.26900E+11,

                          0.98995E+09,
                          0.98995E+09,
                          0.10800E+11,

                          0.13347E+10,
                          0.12353E+10,
                          0.11172E+11,
                          0.16825E+11,

                         -0.12353E+10,
                         -0.13347E+10,
                         -0.11172E+11,
                         -0.11475E+11,
                          0.16825E+11,

                         -0.13576E+11,
                          0.13576E+11,
                               0.,
                         -0.16334E+09,
                         -0.16334E+09,
                          0.34400E+11,

                         -0.26900E+11,
                         -0.14200E+11,
                         -0.98995E+09,
                         -0.13347E+10,
                          0.12353E+10,
                          0.13576E+11,
                          0.26900E+11,

                         -0.14200E+11,
                         -0.26900E+11,
                         -0.98995E+09,
                         -0.12353E+10,
                          0.13347E+10,
                         -0.13576E+11,
                          0.14200E+11,
                          0.26900E+11,

                         -0.98995E+09,
                         -0.98995E+09,
                         -0.10800E+11,
                         -0.11172E+11,
                          0.11172E+11,
                               0.,
                          0.98995E+09,
                          0.98995E+09,
                          0.10800E+11,

                         -0.14070E+09,
                         -0.41300E+08,
                          0.19092E+10,
                         -0.32950E+10,
                         -0.20550E+10,
                          0.16334E+09,
                          0.14070E+09,
                          0.41300E+08,
                         -0.19092E+10,
                          0.56000E+10,

                          0.41300E+08,
                          0.14070E+09,
                         -0.19092E+10,
                         -0.20550E+10,
                         -0.32950E+10,
                          0.16334E+09,
                         -0.41300E+08,
                         -0.14070E+09,
                          0.19092E+10,
                         -0.25000E+09,
                          0.56000E+10,

                         -0.17041E+10,
                          0.17041E+10,
                               0.,
                          0.43558E+08,
                          0.43558E+08,
                         -0.16000E+10,
                          0.17041E+10,
                         -0.17041E+10,
                               0.,
                         -0.43558E+08,
                         -0.43558E+08,
                          0.57200E+10,
                    )),
#POMPE_PRIMA._BOUCLE_N._1_ELEMENT_NUMERO:0268
            _F(  GROUP_MA = ( 'PP81', ),
              CARA = 'K_TR_L',
              VALE = (
                          0.26900E+11,

                         -0.14200E+11,
                          0.26900E+11,

                          0.98995E+09,
                         -0.98995E+09,
                          0.10800E+11,

                         -0.13347E+10,
                          0.12353E+10,
                         -0.11172E+11,
                          0.16825E+11,

                         -0.12353E+10,
                          0.13347E+10,
                         -0.11172E+11,
                          0.11475E+11,
                          0.16825E+11,

                          0.13576E+11,
                          0.13576E+11,
                               0.,
                         -0.16334E+09,
                          0.16334E+09,
                          0.34400E+11,

                         -0.26900E+11,
                          0.14200E+11,
                         -0.98995E+09,
                          0.13347E+10,
                          0.12353E+10,
                         -0.13576E+11,
                          0.26900E+11,

                          0.14200E+11,
                         -0.26900E+11,
                          0.98995E+09,
                         -0.12353E+10,
                         -0.13347E+10,
                         -0.13576E+11,
                         -0.14200E+11,
                          0.26900E+11,

                         -0.98995E+09,
                          0.98995E+09,
                         -0.10800E+11,
                          0.11172E+11,
                          0.11172E+11,
                               0.,
                          0.98995E+09,
                         -0.98995E+09,
                          0.10800E+11,

                          0.14070E+09,
                         -0.41300E+08,
                         -0.19092E+10,
                         -0.32950E+10,
                          0.20550E+10,
                          0.16334E+09,
                         -0.14070E+09,
                          0.41300E+08,
                          0.19092E+10,
                          0.56000E+10,

                          0.41300E+08,
                         -0.14070E+09,
                         -0.19092E+10,
                          0.20550E+10,
                         -0.32950E+10,
                         -0.16334E+09,
                         -0.41300E+08,
                          0.14070E+09,
                          0.19092E+10,
                          0.25000E+09,
                          0.56000E+10,

                          0.17041E+10,
                          0.17041E+10,
                               0.,
                          0.43558E+08,
                         -0.43558E+08,
                         -0.16000E+10,
                         -0.17041E+10,
                         -0.17041E+10,
                               0.,
                         -0.43558E+08,
                          0.43558E+08,
                          0.57200E+10,
                    )),
# POMPE_PRIMA._BOUCLE_N._2_ELEMENT_NUMERO:0267
            _F(  GROUP_MA = ( 'PP82', ),
              CARA = 'K_TR_L',
              VALE = (
                          0.26900E+11,

                          0.14200E+11,
                          0.26900E+11,

                         -0.98995E+09,
                         -0.98995E+09,
                          0.10800E+11,

                          0.13347E+10,
                          0.12353E+10,
                         -0.11172E+11,
                          0.16825E+11,

                         -0.12353E+10,
                         -0.13347E+10,
                          0.11172E+11,
                         -0.11475E+11,
                          0.16825E+11,

                          0.13576E+11,
                         -0.13576E+11,
                               0.,
                          0.16334E+09,
                          0.16334E+09,
                          0.34400E+11,

                         -0.26900E+11,
                         -0.14200E+11,
                          0.98995E+09,
                         -0.13347E+10,
                          0.12353E+10,
                         -0.13576E+11,
                          0.26900E+11,

                         -0.14200E+11,
                         -0.26900E+11,
                          0.98995E+09,
                         -0.12353E+10,
                          0.13347E+10,
                          0.13576E+11,
                          0.14200E+11,
                          0.26900E+11,

                          0.98995E+09,
                          0.98995E+09,
                         -0.10800E+11,
                          0.11172E+11,
                         -0.11172E+11,
                               0.,
                         -0.98995E+09,
                         -0.98995E+09,
                          0.10800E+11,

                         -0.14070E+09,
                         -0.41300E+08,
                         -0.19092E+10,
                         -0.32950E+10,
                         -0.20550E+10,
                         -0.16334E+09,
                          0.14070E+09,
                          0.41300E+08,
                          0.19092E+10,
                          0.56000E+10,

                          0.41300E+08,
                          0.14070E+09,
                          0.19092E+10,
                         -0.20550E+10,
                         -0.32950E+10,
                         -0.16334E+09,
                         -0.41300E+08,
                         -0.14070E+09,
                         -0.19092E+10,
                         -0.25000E+09,
                          0.56000E+10,

                          0.17041E+10,
                         -0.17041E+10,
                               0.,
                         -0.43558E+08,
                         -0.43558E+08,
                         -0.16000E+10,
                         -0.17041E+10,
                          0.17041E+10,
                               0.,
                          0.43558E+08,
                          0.43558E+08,
                          0.57200E+10,
                    )),
#FOND_DE_G.V._BOUCLE_N._3_ELEMENT_NUMERO:0086
            _F(  GROUP_MA = ( 'GVFS23', ),
              CARA = 'K_TR_L',
              VALE = (
                          0.21653E+11,

                         -0.42880E+10,
                          0.12772E+11,

                          0.13642E+11,
                         -0.55116E+10,
                          0.28574E+11,

                          0.61035E-04,
                          0.17159E+11,
                          0.53937E+10,
                          0.34645E+11,

                         -0.17159E+11,
                         -0.30518E-04,
                          0.13350E+11,
                          0.63330E+10,
                          0.47761E+11,

                         -0.53937E+10,
                         -0.13350E+11,
                               0.,
                         -0.20148E+11,
                          0.81401E+10,
                          0.24423E+11,

                         -0.21653E+11,
                          0.42880E+10,
                         -0.13642E+11,
                          0.61035E-04,
                          0.17159E+11,
                          0.53937E+10,
                          0.21653E+11,

                          0.42880E+10,
                         -0.12772E+11,
                          0.55116E+10,
                         -0.17159E+11,
                         -0.30518E-04,
                          0.13350E+11,
                         -0.42880E+10,
                          0.12772E+11,

                         -0.13642E+11,
                          0.55116E+10,
                         -0.28574E+11,
                         -0.53937E+10,
                         -0.13350E+11,
                               0.,
                          0.13642E+11,
                         -0.55116E+10,
                          0.28574E+11,

                         -0.76294E-05,
                          0.27961E+10,
                          0.87889E+09,
                         -0.55183E+09,
                          0.12548E+10,
                         -0.39921E+10,
                          0.76294E-05,
                         -0.27961E+10,
                         -0.87889E+09,
                          0.61062E+10,

                         -0.27961E+10,
                         -0.76294E-05,
                          0.21753E+10,
                          0.12548E+10,
                          0.20470E+10,
                          0.16129E+10,
                          0.27961E+10,
                          0.76294E-05,
                         -0.21753E+10,
                         -0.18656E+08,
                          0.60675E+10,

                         -0.87889E+09,
                         -0.21753E+10,
                               0.,
                         -0.39921E+10,
                          0.16129E+10,
                         -0.25772E+10,
                          0.87889E+09,
                          0.21753E+10,
                               0.,
                          0.59351E+08,
                         -0.23979E+08,
                          0.61363E+10,
                    )),
#FOND_DE_G.V._BOUCLE_N._4_ELEMENT_NUMERO:0085
            _F(  GROUP_MA = ( 'GVFS24', ),
              CARA = 'K_TR_L',
              VALE = (
                          0.21653E+11,

                          0.42880E+10,
                          0.12772E+11,

                         -0.13642E+11,
                         -0.55116E+10,
                          0.28574E+11,

                         -0.72760E-11,
                          0.17159E+11,
                          0.53937E+10,
                          0.34645E+11,

                         -0.17159E+11,
                         -0.30518E-04,
                         -0.13350E+11,
                         -0.63330E+10,
                          0.47761E+11,

                         -0.53937E+10,
                          0.13350E+11,
                               0.,
                          0.20148E+11,
                          0.81401E+10,
                          0.24423E+11,

                         -0.21653E+11,
                         -0.42880E+10,
                          0.13642E+11,
                         -0.72760E-11,
                          0.17159E+11,
                          0.53937E+10,
                          0.21653E+11,

                         -0.42880E+10,
                         -0.12772E+11,
                          0.55116E+10,
                         -0.17159E+11,
                         -0.30518E-04,
                         -0.13350E+11,
                          0.42880E+10,
                          0.12772E+11,

                          0.13642E+11,
                          0.55116E+10,
                         -0.28574E+11,
                         -0.53937E+10,
                          0.13350E+11,
                               0.,
                         -0.13642E+11,
                         -0.55116E+10,
                          0.28574E+11,

                         -0.76294E-05,
                          0.27961E+10,
                          0.87889E+09,
                         -0.55183E+09,
                         -0.12548E+10,
                          0.39921E+10,
                          0.76294E-05,
                         -0.27961E+10,
                         -0.87889E+09,
                          0.61062E+10,

                         -0.27961E+10,
                         -0.76294E-05,
                         -0.21753E+10,
                         -0.12548E+10,
                          0.20470E+10,
                          0.16129E+10,
                          0.27961E+10,
                          0.76294E-05,
                          0.21753E+10,
                          0.18656E+08,
                          0.60675E+10,

                         -0.87889E+09,
                          0.21753E+10,
                               0.,
                          0.39921E+10,
                          0.16129E+10,
                         -0.25772E+10,
                          0.87889E+09,
                         -0.21753E+10,
                               0.,
                         -0.59351E+08,
                         -0.23979E+08,
                          0.61363E+10,
                    )),
#FOND_DE_G.V._BOUCLE_N._1_ELEMENT_NUMERO:0084
            _F(  GROUP_MA = ( 'GVFS21', ),
              CARA = 'K_TR_L',
              VALE = (
                          0.21653E+11,

                         -0.42880E+10,
                          0.12772E+11,

                         -0.13642E+11,
                          0.55116E+10,
                          0.28574E+11,

                          0.61035E-04,
                          0.17159E+11,
                         -0.53937E+10,
                          0.34645E+11,

                         -0.17159E+11,
                         -0.30518E-04,
                         -0.13350E+11,
                          0.63330E+10,
                          0.47761E+11,

                          0.53937E+10,
                          0.13350E+11,
                               0.,
                          0.20148E+11,
                         -0.81401E+10,
                          0.24423E+11,

                         -0.21653E+11,
                          0.42880E+10,
                          0.13642E+11,
                          0.61035E-04,
                          0.17159E+11,
                         -0.53937E+10,
                          0.21653E+11,

                          0.42880E+10,
                         -0.12772E+11,
                         -0.55116E+10,
                         -0.17159E+11,
                         -0.30518E-04,
                         -0.13350E+11,
                         -0.42880E+10,
                          0.12772E+11,

                          0.13642E+11,
                         -0.55116E+10,
                         -0.28574E+11,
                          0.53937E+10,
                          0.13350E+11,
                               0.,
                         -0.13642E+11,
                          0.55116E+10,
                          0.28574E+11,

                         -0.15259E-04,
                          0.27961E+10,
                         -0.87889E+09,
                         -0.55183E+09,
                          0.12548E+10,
                          0.39921E+10,
                          0.15259E-04,
                         -0.27961E+10,
                          0.87889E+09,
                          0.61062E+10,

                         -0.27961E+10,
                         -0.15259E-04,
                         -0.21753E+10,
                          0.12548E+10,
                          0.20470E+10,
                         -0.16129E+10,
                          0.27961E+10,
                          0.15259E-04,
                          0.21753E+10,
                         -0.18656E+08,
                          0.60675E+10,

                          0.87889E+09,
                          0.21753E+10,
                               0.,
                          0.39921E+10,
                         -0.16129E+10,
                         -0.25772E+10,
                         -0.87889E+09,
                         -0.21753E+10,
                               0.,
                         -0.59351E+08,
                          0.23979E+08,
                          0.61363E+10,
                    )),
#FOND_DE_G.V._BOUCLE_N._2_ELEMENT_NUMERO:0083
            _F(  GROUP_MA = ( 'GVFS22', ),
              CARA = 'K_TR_L',
              VALE = (
                          0.21653E+11,

                          0.42880E+10,
                          0.12772E+11,

                          0.13642E+11,
                          0.55116E+10,
                          0.28574E+11,

                               0.,
                          0.17159E+11,
                         -0.53937E+10,
                          0.34645E+11,

                         -0.17159E+11,
                         -0.30518E-04,
                          0.13350E+11,
                         -0.63330E+10,
                          0.47761E+11,

                          0.53937E+10,
                         -0.13350E+11,
                               0.,
                         -0.20148E+11,
                         -0.81401E+10,
                          0.24423E+11,

                         -0.21653E+11,
                         -0.42880E+10,
                         -0.13642E+11,
                               0.,
                          0.17159E+11,
                         -0.53937E+10,
                          0.21653E+11,

                         -0.42880E+10,
                         -0.12772E+11,
                         -0.55116E+10,
                         -0.17159E+11,
                         -0.30518E-04,
                          0.13350E+11,
                          0.42880E+10,
                          0.12772E+11,

                         -0.13642E+11,
                         -0.55116E+10,
                         -0.28574E+11,
                          0.53937E+10,
                         -0.13350E+11,
                               0.,
                          0.13642E+11,
                          0.55116E+10,
                          0.28574E+11,

                         -0.76294E-05,
                          0.27961E+10,
                         -0.87889E+09,
                         -0.55183E+09,
                         -0.12548E+10,
                         -0.39921E+10,
                          0.76294E-05,
                         -0.27961E+10,
                          0.87889E+09,
                          0.61062E+10,

                         -0.27961E+10,
                         -0.76294E-05,
                          0.21753E+10,
                         -0.12548E+10,
                          0.20470E+10,
                         -0.16129E+10,
                          0.27961E+10,
                          0.76294E-05,
                         -0.21753E+10,
                          0.18656E+08,
                          0.60675E+10,

                          0.87889E+09,
                         -0.21753E+10,
                               0.,
                         -0.39921E+10,
                         -0.16129E+10,
                         -0.25772E+10,
                         -0.87889E+09,
                          0.21753E+10,
                               0.,
                          0.59351E+08,
                          0.23979E+08,
                          0.61363E+10,
                    )),
#FOND_DE_G.V._BOUCLE_N._3_ELEMENT_NUMERO:0082
            _F(  GROUP_MA = ( 'GVFS13', ),
              CARA = 'K_TR_L',
              VALE = (
                          0.11134E+11,

                          0.10719E+10,
                          0.23292E+11,

                          0.12823E+10,
                          0.14657E+11,
                          0.28574E+11,

                               0.,
                          0.17159E+11,
                         -0.14344E+11,
                          0.50181E+11,

                         -0.17159E+11,
                         -0.30518E-04,
                          0.12549E+10,
                         -0.15831E+10,
                          0.32225E+11,

                          0.14344E+11,
                         -0.12549E+10,
                               0.,
                         -0.18939E+10,
                         -0.21647E+11,
                          0.24423E+11,

                         -0.11134E+11,
                         -0.10719E+10,
                         -0.12823E+10,
                               0.,
                          0.17159E+11,
                         -0.14344E+11,
                          0.11134E+11,

                         -0.10719E+10,
                         -0.23292E+11,
                         -0.14657E+11,
                         -0.17159E+11,
                         -0.30518E-04,
                          0.12549E+10,
                          0.10719E+10,
                          0.23292E+11,

                         -0.12823E+10,
                         -0.14657E+11,
                         -0.28574E+11,
                          0.14344E+11,
                         -0.12549E+10,
                               0.,
                          0.12823E+10,
                          0.14657E+11,
                          0.28574E+11,

                         -0.57220E-05,
                          0.27961E+10,
                         -0.23372E+10,
                          0.25266E+10,
                         -0.31368E+09,
                         -0.37526E+09,
                          0.57220E-05,
                         -0.27961E+10,
                          0.23372E+10,
                          0.60604E+10,

                         -0.27961E+10,
                         -0.38147E-05,
                          0.20448E+09,
                         -0.31368E+09,
                         -0.10314E+10,
                         -0.42892E+10,
                          0.27961E+10,
                          0.38147E-05,
                         -0.20448E+09,
                          0.46636E+07,
                          0.61133E+10,

                          0.23372E+10,
                         -0.20448E+09,
                               0.,
                         -0.37526E+09,
                         -0.42892E+10,
                         -0.25772E+10,
                         -0.23372E+10,
                          0.20448E+09,
                               0.,
                          0.55791E+07,
                          0.63769E+08,
                          0.61363E+10,
                    )),
#FOND_DE_G.V._BOUCLE_N._4_ELEMENT_NUMERO:0081
            _F(  GROUP_MA = ( 'GVFS14', ),
              CARA = 'K_TR_L',
              VALE = (
                          0.11134E+11,

                         -0.10719E+10,
                          0.23292E+11,

                         -0.12823E+10,
                          0.14657E+11,
                          0.28574E+11,

                         -0.72760E-11,
                          0.17159E+11,
                         -0.14344E+11,
                          0.50181E+11,

                         -0.17159E+11,
                         -0.30518E-04,
                         -0.12549E+10,
                          0.15831E+10,
                          0.32225E+11,

                          0.14344E+11,
                          0.12549E+10,
                               0.,
                          0.18939E+10,
                         -0.21647E+11,
                          0.24423E+11,

                         -0.11134E+11,
                          0.10719E+10,
                          0.12823E+10,
                         -0.72760E-11,
                          0.17159E+11,
                         -0.14344E+11,
                          0.11134E+11,

                          0.10719E+10,
                         -0.23292E+11,
                         -0.14657E+11,
                         -0.17159E+11,
                         -0.30518E-04,
                         -0.12549E+10,
                         -0.10719E+10,
                          0.23292E+11,

                          0.12823E+10,
                         -0.14657E+11,
                         -0.28574E+11,
                          0.14344E+11,
                          0.12549E+10,
                               0.,
                         -0.12823E+10,
                          0.14657E+11,
                          0.28574E+11,

                         -0.76294E-05,
                          0.27961E+10,
                         -0.23372E+10,
                          0.25266E+10,
                          0.31368E+09,
                          0.37526E+09,
                          0.76294E-05,
                         -0.27961E+10,
                          0.23372E+10,
                          0.60604E+10,

                         -0.27961E+10,
                          0.90949E-12,
                         -0.20448E+09,
                          0.31368E+09,
                         -0.10314E+10,
                         -0.42892E+10,
                          0.27961E+10,
                         -0.90949E-12,
                          0.20448E+09,
                         -0.46636E+07,
                          0.61133E+10,

                          0.23372E+10,
                          0.20448E+09,
                               0.,
                          0.37526E+09,
                         -0.42892E+10,
                         -0.25772E+10,
                         -0.23372E+10,
                         -0.20448E+09,
                               0.,
                         -0.55791E+07,
                          0.63769E+08,
                          0.61363E+10,
                    )),
#FOND_DE_G.V._BOUCLE_N._1_ELEMENT_NUMERO:0080
            _F(  GROUP_MA = ( 'GVFS11', ),
              CARA = 'K_TR_L',
              VALE = (
                          0.11134E+11,

                          0.10719E+10,
                          0.23292E+11,

                         -0.12823E+10,
                         -0.14657E+11,
                          0.28574E+11,

                          0.15259E-04,
                          0.17159E+11,
                          0.14344E+11,
                          0.50181E+11,

                         -0.17159E+11,
                         -0.45776E-04,
                         -0.12549E+10,
                         -0.15831E+10,
                          0.32225E+11,

                         -0.14344E+11,
                          0.12549E+10,
                               0.,
                          0.18939E+10,
                          0.21647E+11,
                          0.24423E+11,

                         -0.11134E+11,
                         -0.10719E+10,
                          0.12823E+10,
                          0.15259E-04,
                          0.17159E+11,
                          0.14344E+11,
                          0.11134E+11,

                         -0.10719E+10,
                         -0.23292E+11,
                          0.14657E+11,
                         -0.17159E+11,
                         -0.45776E-04,
                         -0.12549E+10,
                          0.10719E+10,
                          0.23292E+11,

                          0.12823E+10,
                          0.14657E+11,
                         -0.28574E+11,
                         -0.14344E+11,
                          0.12549E+10,
                               0.,
                         -0.12823E+10,
                         -0.14657E+11,
                          0.28574E+11,

                         -0.57220E-05,
                          0.27961E+10,
                          0.23372E+10,
                          0.25266E+10,
                         -0.31368E+09,
                          0.37526E+09,
                          0.57220E-05,
                         -0.27961E+10,
                         -0.23372E+10,
                          0.60604E+10,

                         -0.27961E+10,
                         -0.19073E-05,
                         -0.20448E+09,
                         -0.31368E+09,
                         -0.10314E+10,
                          0.42892E+10,
                          0.27961E+10,
                          0.19073E-05,
                          0.20448E+09,
                          0.46636E+07,
                          0.61133E+10,

                         -0.23372E+10,
                          0.20448E+09,
                               0.,
                          0.37526E+09,
                          0.42892E+10,
                         -0.25772E+10,
                          0.23372E+10,
                         -0.20448E+09,
                               0.,
                         -0.55791E+07,
                         -0.63769E+08,
                          0.61363E+10,
                    )),
#FOND_DE_G.V._BOUCLE_N._2_ELEMENT_NUMERO:0079
            _F(  GROUP_MA = ( 'GVFS12', ),
              CARA = 'K_TR_L',
              VALE = (
                          0.11134E+11,

                         -0.10719E+10,
                          0.23292E+11,

                          0.12823E+10,
                         -0.14657E+11,
                          0.28574E+11,

                               0.,
                          0.17159E+11,
                          0.14344E+11,
                          0.50181E+11,

                         -0.17159E+11,
                         -0.30518E-04,
                          0.12549E+10,
                          0.15831E+10,
                          0.32225E+11,

                         -0.14344E+11,
                         -0.12549E+10,
                               0.,
                         -0.18939E+10,
                          0.21647E+11,
                          0.24423E+11,

                         -0.11134E+11,
                          0.10719E+10,
                         -0.12823E+10,
                               0.,
                          0.17159E+11,
                          0.14344E+11,
                          0.11134E+11,

                          0.10719E+10,
                         -0.23292E+11,
                          0.14657E+11,
                         -0.17159E+11,
                         -0.30518E-04,
                          0.12549E+10,
                         -0.10719E+10,
                          0.23292E+11,

                         -0.12823E+10,
                          0.14657E+11,
                         -0.28574E+11,
                         -0.14344E+11,
                         -0.12549E+10,
                               0.,
                          0.12823E+10,
                         -0.14657E+11,
                          0.28574E+11,

                         -0.76294E-05,
                          0.27961E+10,
                          0.23372E+10,
                          0.25266E+10,
                          0.31368E+09,
                         -0.37526E+09,
                          0.76294E-05,
                         -0.27961E+10,
                         -0.23372E+10,
                          0.60604E+10,

                         -0.27961E+10,
                               0.,
                          0.20448E+09,
                          0.31368E+09,
                         -0.10314E+10,
                          0.42892E+10,
                          0.27961E+10,
                               0.,
                         -0.20448E+09,
                         -0.46636E+07,
                          0.61133E+10,

                         -0.23372E+10,
                         -0.20448E+09,
                               0.,
                         -0.37526E+09,
                          0.42892E+10,
                         -0.25772E+10,
                          0.23372E+10,
                          0.20448E+09,
                               0.,
                          0.55791E+07,
                         -0.63769E+08,
                          0.61363E+10,
                    )),
#SUPPORTAGES VERTICAUX DE CUVE
            _F(  GROUP_MA = ( 'SUPCUV', ),
              CARA = 'K_TR_D_L',
# KY ET KZ KRX KRY KRZ SONT HYPOTHESE GAUTIER
              VALE = ( 0.535E+10, 0.216E+09, 0.216E+09,
              0.535E+10, 0.216E+09, 0.216E+09,),
              REPERE = 'LOCAL'),
#SUPPORTAGES VERTICAUX DES GV --> BEQUILLES DES GV
            _F(  GROUP_MA = ( 'BEQGV', ),
              CARA = 'K_TR_D_L',
              VALE = ( 0.108E+10, 1., 1., 1., 1., 1., ),
              REPERE = 'LOCAL'),
#SUPPORTAGES VERTICAUX DES PP --> BEQUILLES DES PP
            _F(  GROUP_MA = ( 'BEQPP', ),
              CARA = 'K_TR_D_L',
              VALE = ( 0.101E+10, 1., 1., 1., 1., 1., ),
              REPERE = 'LOCAL'),
#AMORTISSEUR DE POMPE SUR LES BOUCLE N 2 3 4 1
            _F(  GROUP_MA = ( 'DABPP1',),
              CARA = 'K_TR_D_L',
              VALE = ( 0.112E+10, 1., 1., 1., 1., 1., ),
              REPERE = 'LOCAL'),
            _F(  GROUP_MA = ( 'DABPP2',),
              CARA = 'K_TR_D_L',
              VALE = ( 0.150E+10, 1., 1., 1., 1., 1., ),
              REPERE = 'LOCAL'),
            _F(  GROUP_MA = ( 'DABPP3',),
              CARA = 'K_TR_D_L',
              VALE = ( 0.118E+10, 1., 1., 1., 1., 1., ),
              REPERE = 'LOCAL'),
#
# MASSES ET INERTIES LOCALISEES
# CUVE
            _F(  GROUP_MA = ( 'MASCU7', ),
              CARA = 'M_TR_D_N',
              VALE = ( 154500.,
                       0.,
                       0.,
                       0.,
                       0., 0., 0.,
                       0., 0., 0.,
                     )),
            _F(  GROUP_MA = ( 'MASCU6', ),
              CARA = 'M_TR_D_N',
              VALE = ( 68126.,
                       0.,
                       0.,
                       0.,
                       0., 0., 0.,
                       0., 0., 0.,
                     )),
            _F(  GROUP_MA = ( 'MASCU5', ),
              CARA = 'M_TR_D_N',
              VALE = ( 20182.,
                       0.,
                       0.,
                       0.,
                       0., 0., 0.,
                       0., 0., 0.,
                     )),
            _F(  GROUP_MA = ( 'MASCU4', ),
              CARA = 'M_TR_D_N',
              VALE = ( 68485.,
                       0.,
                       0.,
                       0.,
                       0., 0., 0.,
                       0., 0., 0.,
                     )),
            _F(  GROUP_MA = ( 'MASCU3', ),
              CARA = 'M_TR_D_N',
              VALE = ( 72546.,
                       0.,
                       0.,
                       0.,
                       0., 0., 0.,
                       0., 0., 0.,
                     )),
            _F(  GROUP_MA = ( 'MASCU2', ),
              CARA = 'M_TR_D_N',
              VALE = ( 76045.,
                       0.,
                       0.,
                       0.,
                       0., 0., 0.,
                       0., 0., 0.,
                     )),
            _F(  GROUP_MA = ( 'MASCU1', ),
              CARA = 'M_TR_D_N',
              VALE = ( 36189.,
                       0.,
                       0.,
                       0.,
                       0., 0., 0.,
                       0., 0., 0.,
                     )),
# GENERATEURS DE VAPEUR
            _F(  GROUP_MA = ( 'MASGV1', ),
              CARA = 'M_TR_D_N',
              VALE = ( 25847.,
                       0.,
                       0.,
                       0.,
                       0., 0., 0.,
                       0., 0., 0.,
                     )),
            _F(  GROUP_MA = ( 'MASGV2', ),
              CARA = 'M_TR_D_N',
              VALE = ( 6819.,
                       0.,
                       0.,
                       0.,
                       0., 0., 0.,
                       0., 0., 0.,
                     )),
            _F(  GROUP_MA = ( 'MASGV3', ),
              CARA = 'M_TR_D_N',
              VALE = ( 15684.,
                       0.,
                       0.,
                       0.,
                       0., 0., 0.,
                       0., 0., 0.,
                     )),
            _F(  GROUP_MA = ( 'MASGV4', ),
              CARA = 'M_TR_D_N',
              VALE = ( 14697.,
                       0.,
                       0.,
                       0.,
                       0., 0., 0.,
                       0., 0., 0.,
                     )),
            _F(  GROUP_MA = ( 'MASGV5', ),
              CARA = 'M_TR_D_N',
              VALE = ( 25662.6,
                       0.,
                       0.,
                       0.,
                       0., 0., 0.,
                       0., 0., 0.,
                     )),
            _F(  GROUP_MA = ( 'MASGV6', ),
              CARA = 'M_TR_D_N',
              VALE = ( 13777.,
                       0.,
                       0.,
                       0.,
                       0., 0., 0.,
                       0., 0., 0.,
                     )),
            _F(  GROUP_MA = ( 'MASGV7', ),
              CARA = 'M_TR_D_N',
              VALE = ( 10164.,
                       0.,
                       0.,
                       0.,
                       0., 0., 0.,
                       0., 0., 0.,
                     )),
# POMPES
            _F(  GROUP_MA = ( 'MASPP8', ),
              CARA = 'M_TR_D_N',
              VALE = ( 8000.,
                       1650.,
                       1650.,
                       3340.,
                       0., 0., 0.,
                       0., 0., 0.,
                     )),
            _F(  GROUP_MA = ( 'MASPP7', ),
              CARA = 'M_TR_D_N',
              VALE = ( 2868.,
                       0.,
                       0.,
                       14300.,
                       0., 0., 0.,
                       0., 0., 0.,
                     )),
            _F(  GROUP_MA = ( 'MASPP6', ),
              CARA = 'M_TR_D_N',
              VALE = ( 12294.,
                       2211.6,
                       2211.6,
                       11000.,
                       0., 0., 0.,
                       0., 0., 0.,
                     )),
            _F(  GROUP_MA = ( 'MASPP5', ),
              CARA = 'M_TR_D_N',
              VALE = ( 2834.7,
                       533.78,
                       533.78,
                       4700.,
                       0., 0., 0.,
                       0., 0., 0.,
                     )),
            _F(  GROUP_MA = ( 'MASPP4', ),
              CARA = 'M_TR_D_N',
              VALE = ( 870.,
                       0.,
                       0.,
                       0.,
                       0., 0., 0.,
                       0., 0., 0.,
                     )),
            _F(  GROUP_MA = ( 'MASPP3', ),
              CARA = 'M_TR_D_N',
              VALE = ( 27219.,
                       666.88,
                       666.88,
                       5625.8,
                       0., 0., 0.,
                       0., 0., 0.,
                     )),
            _F(  GROUP_MA = ( 'MASPP2', ),
              CARA = 'M_TR_D_N',
              VALE = ( 9701.3,
                       600.,
                       600.,
                       3000.,
                       0., 0., 0.,
                       0., 0., 0.,
                     )),
            _F(  GROUP_MA = ( 'MASPP1', ),
              CARA = 'M_TR_D_N',
              VALE = ( 6556.3,
                       1100.,
                       1100.,
                       5600.,
                       0., 0., 0.,
                       0., 0., 0.,
                     )),
#
# LIAISONS AU SOL
#
           _F(  GROUP_MA = 'LIAI_SOL',
                     CARA = 'K_TR_D_L',
                     VALE = (1.86E10, 1.86E10, 1.88E10,
                            1.02E13, 1.02E13, 1.095E13,))),POUTRE=(
#
#   CPP
#---------------------
#
# SUPPORTAGE DES GV (INVERIFIABLE)
       _F( GROUP_MA = ( 'GV12', 'GV11', 'GV14', 'GV13', ),
               SECTION = 'GENERALE',
               CARA = ('A',    'IZ',    'IY',   'AY', 'AZ',  'JX',),
               VALE = (2.606,  2.6692,  2.7731, 1.89, 1.89,  5.4423,)),
# CORPS DE POMPE BOUCLE N 2,3,4,1 (INVERIFIABLE)
              _F( GROUP_MA = ( 'PP42', 'PP41', 'PP44', 'PP43', ),
               SECTION = 'GENERALE',
               CARA = ('A',     'IZ',    'IY',   'AY', 'AZ',  'JX',),
               VALE = (.26755,  .10479,  .14372, 1.89, 1.89,  .24852,)),
# CORPS DE POMPE BOUCLE N 2,3,4,1 (INVERIFIABLE)
              _F( GROUP_MA = ( 'PP52', 'PP51', 'PP54', 'PP53', ),
               SECTION = 'GENERALE',
               CARA = ('A',     'IZ',    'IY',    'AY', 'AZ',  'JX',),
               VALE = (.24505,  .022377, .13383,  1.89, 1.89,  .15621,)),
# CORPS DE POMPE BOUCLE N 2,3,4,1 (INVERIFIABLE)
              _F( GROUP_MA = ( 'PP62', 'PP61', 'PP64', 'PP63', ),
               SECTION = 'GENERALE',
               CARA = ('A',     'IZ',    'IY',    'AY', 'AZ',  'JX',),
               VALE = (.17322,  .027593, .082459, 1.89, 1.89,  .11005,)),
# CUVE (QUALITATIVEMENT BON)
              _F( GROUP_MA = ( 'CORCUV1', ),
               SECTION = 'CERCLE',
               CARA = ('R',     'EP',),
               VALE = (2.70505, .52996,)),
              _F( GROUP_MA = ( 'CORCUV2', ),
               SECTION = 'CERCLE',
               CARA = ('R',     'EP',),
               VALE = (2.5046,  .28896,)),
              _F( GROUP_MA = ( 'CORCUV3', 'CORCUV4', 'CORCUV5', 'CORCUV6', ),
               SECTION = 'CERCLE',
               CARA = ('R',     'EP',),
               VALE = (2.4729,  .23004,)),
              _F( GROUP_MA = ( 'RIGICU',
                           'RIGIANN',
                           'EXIGVV',
                           'EXIGV',
                           'EXIPPV',
                           'RIGPP',
                           'PPE7',
                         ),
               SECTION = 'CERCLE',
               CARA = ('R', 'EP',),
               VALE = (.5,  .1, )),
              _F( GROUP_MA = ( 'BCD', ),
               SECTION = 'CERCLE',
               CARA = ('R',   'EP',),
               VALE = (.438,  .0695,)),
              _F( GROUP_MA = ( 'GVE2', 'GVE3', ),
               SECTION = 'CERCLE',
               CARA = ('R',   'EP',),
               VALE = (1.7574,  1.0387,)),
              _F( GROUP_MA = ( 'GVE4', ),
               SECTION = 'CERCLE',
               CARA = ('R',     'EP',),
               VALE = (1.85515, .10498,)),
              _F( GROUP_MA = ( 'GVE5', ),
               SECTION = 'CERCLE',
               CARA = ('R',     'EP',),
               VALE = (1.84525, .095236,)),
              _F( GROUP_MA = ( 'GVE6', ),
               SECTION = 'CERCLE',
               CARA = ('R',     'EP',),
               VALE = (1.84865, .098763,)),
              _F( GROUP_MA = ( 'GVE7', ),
               SECTION = 'CERCLE',
               CARA = ('R',     'EP',),
               VALE = (2.08765, .11886,)),
              _F( GROUP_MA = ( 'GVE8', ),
               SECTION = 'CERCLE',
               CARA = ('R',     'EP',),
               VALE = (2.38925, .11396,)),
              _F( GROUP_MA = ( 'GVE9', ),
               SECTION = 'CERCLE',
               CARA = ('R',  'EP',),
               VALE = (.789, .36502,)),
              _F( GROUP_MA = ( 'BUD', ),
               SECTION = 'CERCLE',
               CARA = ('R',  'EP',),
               VALE = (.4675, .0735,)),
              _F( GROUP_MA = ( 'PPE2', ),
               SECTION = 'CERCLE',
               CARA = ('R',    'EP',),
               VALE = (1.2244, .18259,)),
              _F( GROUP_MA = ( 'PPE3', ),
               SECTION = 'CERCLE',
               CARA = ('R',    'EP',),
               VALE = (.80165, .098954,)),
              _F( GROUP_MA = ( 'BFD', ),
               SECTION = 'CERCLE',
               CARA = ('R',   'EP',),
               VALE = (.4155, .0665,)),
#COUDES ATTENTION DESACCORD DE CES VALEURS AVEC SEPTEN ET PDMS
              _F( GROUP_MA = ( 'BCC', ),
               SECTION = 'CERCLE',
               CARA = ('R',     'EP',),
               VALE = (.471525, .084,)),
              _F( GROUP_MA = ( 'BUC', ),
               SECTION = 'CERCLE',
               CARA = ('R',     'EP',),
               VALE = (.4857, .084,)),
              _F( GROUP_MA = ( 'BFC', ),
               SECTION = 'CERCLE',
               CARA = ('R',  'EP',),
               VALE = (.434, .077,)),
# POUR LES SUPPORTS DE CUVE
              _F( GROUP_MA = ('SUPCUH01', 'SUPCUH02', 'SUPCUH03', 'SUPCUH04', ),
               SECTION = 'RECTANGLE',
               CARA = ('HY',  'HZ',),
               VALE = (.800,  .090,))),ORIENTATION=(
# DEFINITIONS DE REPERES LOCAUX
# BAS DES GV
    _F(  GROUP_MA = ( 'GV12', ),
                  CARA = 'VECT_Y',
                  VALE = ( -0.5225, -0.85264, 0., )),
                _F(  GROUP_MA = ( 'GV11', ),
                  CARA = 'VECT_Y',
                  VALE = ( -0.5225, +0.85264, 0., )),
                _F(  GROUP_MA = ( 'GV14', ),
                  CARA = 'VECT_Y',
                  VALE = ( +0.5225, +0.85264, 0., )),
                _F(  GROUP_MA = ( 'GV13', ),
                  CARA = 'VECT_Y',
                  VALE = ( +0.5225, -0.85264, 0., )),
# CORPS DE POMPE
                _F(  GROUP_MA = ( 'PP42', 'PP52', 'PP62', ),
                  CARA = 'VECT_Y',
                  VALE = ( -0.7071, -0.7071, 0., )),
                _F(  GROUP_MA = ( 'PP43', 'PP53', 'PP63', ),
                  CARA = 'VECT_Y',
                  VALE = ( +0.7071, -0.7071, 0., )),
                _F(  GROUP_MA = ( 'PP44', 'PP54', 'PP64', ),
                  CARA = 'VECT_Y',
                  VALE = ( +0.7071, +0.7071, 0., )),
                _F(  GROUP_MA = ( 'PP41', 'PP51', 'PP61', ),
                  CARA = 'VECT_Y',
                  VALE = ( -0.7071, +0.7071, 0., )),
# SUPPORT HORIZONTAUX DE CUVE
                _F(  GROUP_MA = ( 'SUPCUH01', ),
                  CARA = 'VECT_Y',
                  VALE = ( -0.7071, +0.7071, 0., )),
                _F(  GROUP_MA = ( 'SUPCUH02', ),
                  CARA = 'VECT_Y',
                  VALE = ( +0.7071, +0.7071, 0., )),
                _F(  GROUP_MA = ( 'SUPCUH03', ),
                  CARA = 'VECT_Y',
                  VALE = ( +0.7071, -0.7071, 0., )),
                _F(  GROUP_MA = ( 'SUPCUH04', ),
                  CARA = 'VECT_Y',
                  VALE = ( -0.7071, -0.7071, 0., ))),DEFI_ARC=(
# COEF DE FLEXIBILITE DES COUDES
# CES COEFFICIENTS N'ONT PAS ETE RETROUVES ET DE PLUS
# IMPOSSIBLE DE MODIFIER POUR L'INSTANT
    _F(  GROUP_MA = ( 'BCC11', ),
               CENTRE = ( -8.318, 3.361, 12.054, ),
               RAYON = 1.354,
               PRECISION = 1.E-2,
               COEF_FLEX = 1.5),
             _F(  GROUP_MA = ( 'BCC12', ),
               CENTRE = ( 8.318, 3.361, 12.054, ),
               RAYON = 1.354,
               PRECISION = 1.E-2,
               COEF_FLEX = 1.5),
             _F(  GROUP_MA = ( 'BCC13', ),
               CENTRE = ( 8.318, -3.361, 12.054, ),
               RAYON = 1.354,
               PRECISION = 1.E-2,
               COEF_FLEX = 1.5),
             _F(  GROUP_MA = ( 'BCC14', ),
               CENTRE = ( -8.318, -3.361, 12.054, ),
               RAYON = 1.354,
               PRECISION = 1.E-2,
               COEF_FLEX = 1.5),
             _F(  GROUP_MA = ( 'BUC11', ),
               CENTRE = ( -10.678, 4.859, 10.313, ),
               RAYON = 1.354,
               PRECISION = 1.E-2,
               COEF_FLEX = 1.4),
             _F(  GROUP_MA = ( 'BUC12', ),
               CENTRE = ( 10.678, 4.859, 10.313, ),
               RAYON = 1.354,
               PRECISION = 1.E-2,
               COEF_FLEX = 1.4),
             _F(  GROUP_MA = ( 'BUC13', ),
               CENTRE = ( 10.678, -4.859, 10.313, ),
               RAYON = 1.354,
               PRECISION = 1.E-2,
               COEF_FLEX = 1.4),
             _F(  GROUP_MA = ( 'BUC14', ),
               CENTRE = ( -10.678, -4.859, 10.313, ),
               RAYON = 1.354,
               PRECISION = 1.E-2,
               COEF_FLEX = 1.4),
             _F(  GROUP_MA = ( 'BUC21', ),
               CENTRE = ( -9.701, 7.372, 9.395, ),
               RAYON = 1.450,
               PRECISION = 1.E-2,
               COEF_FLEX = 2.2),
             _F(  GROUP_MA = ( 'BUC22', ),
               CENTRE = ( 9.701, 7.372, 9.395, ),
               RAYON = 1.450,
               PRECISION = 1.E-2,
               COEF_FLEX = 2.2),
             _F(  GROUP_MA = ( 'BUC23', ),
               CENTRE = ( 9.701, -7.372, 9.395, ),
               RAYON = 1.450,
               PRECISION = 1.E-2,
               COEF_FLEX = 2.2),
             _F(  GROUP_MA = ( 'BUC24', ),
               CENTRE = ( -9.701, -7.372, 9.395, ),
               RAYON = 1.450,
               PRECISION = 1.E-2,
               COEF_FLEX = 2.2),
             _F(  GROUP_MA = ( 'BUC31', ),
               CENTRE = ( -8.734,  8.676,  9.395, ),
               RAYON = 1.450,
               PRECISION = 1.E-2,
               COEF_FLEX = 1.8),
             _F(  GROUP_MA = ( 'BUC32', ),
               CENTRE = ( 8.734,  8.676,  9.395, ),
               RAYON = 1.450,
               PRECISION = 1.E-2,
               COEF_FLEX = 1.8),
             _F(  GROUP_MA = ( 'BUC33', ),
               CENTRE = ( 8.734,  -8.676,  9.395, ),
               RAYON = 1.450,
               PRECISION = 1.E-2,
               COEF_FLEX = 1.8),
             _F(  GROUP_MA = ( 'BUC34', ),
               CENTRE = ( -8.734,  -8.676,  9.395, ),
               RAYON = 1.450,
               PRECISION = 1.E-2,
               COEF_FLEX = 1.8),
             _F(  GROUP_MA = ( 'BFC11', ),
               CENTRE = ( -2.508, 2.710, 10.700, ),
               RAYON = 1.25,
               PRECISION = 1.E-2,
               COEF_FLEX = 1.0),
             _F(  GROUP_MA = ( 'BFC12', ),
               CENTRE = ( 2.508, 2.710, 10.700, ),
               RAYON = 1.25,
               PRECISION = 1.E-2,
               COEF_FLEX = 1.0),
             _F(  GROUP_MA = ( 'BFC13', ),
               CENTRE = ( 2.508, -2.710, 10.700, ),
               RAYON = 1.25,
               PRECISION = 1.E-2,
               COEF_FLEX = 1.0),
             _F(  GROUP_MA = ( 'BFC14', ),
               CENTRE = ( -2.508, -2.710, 10.700, ),
               RAYON = 1.25,
               PRECISION = 1.E-2,
               COEF_FLEX = 1.0))
        )

#
#     CONDITIONS LIMITES
#----------------------------------------------------------------
#     BR
#----------------------------
#
CH_CL=AFFE_CHAR_MECA( 
                              MODELE=MODELE,LIAISON_SOLIDE=(
                          _F( GROUP_NO = ('CENT_RAD','N_RAD_H',)),
#
# ANCRAGES BEQUILLES GV1
#
                    _F(  GROUP_NO = ('NGV1RTI1', 'BGV1RTI1',)),
                    _F(  GROUP_NO = ('NGV1RTI1', 'CGV1RTI1',)),
                    _F(  GROUP_NO = ('NGV1RTI1', 'DGV1RTI1',)),
#
                    _F(  GROUP_NO = ('NGV1RTI2', 'BGV1RTI2',)),
                    _F(  GROUP_NO = ('NGV1RTI2', 'CGV1RTI2',)),
                    _F(  GROUP_NO = ('NGV1RTI2', 'DGV1RTI2',)),
#
                    _F(  GROUP_NO = ('NGV1RTI3', 'BGV1RTI3',)),
                    _F(  GROUP_NO = ('NGV1RTI3', 'CGV1RTI3',)),
                    _F(  GROUP_NO = ('NGV1RTI3', 'DGV1RTI3',)),
#
                    _F(  GROUP_NO = ('NGV1RTI4', 'BGV1RTI4',)),
                    _F(  GROUP_NO = ('NGV1RTI4', 'CGV1RTI4',)),
                    _F(  GROUP_NO = ('NGV1RTI4', 'DGV1RTI4',)),
#
# ANCRAGES BEQUILLES GV2
#
                    _F(  GROUP_NO = ('NGV2RTI1', 'BGV2RTI1',)),
                    _F(  GROUP_NO = ('NGV2RTI1', 'CGV2RTI1',)),
                    _F(  GROUP_NO = ('NGV2RTI1', 'DGV2RTI1',)),
#
                    _F(  GROUP_NO = ('NGV2RTI2', 'BGV2RTI2',)),
                    _F(  GROUP_NO = ('NGV2RTI2', 'CGV2RTI2',)),
                    _F(  GROUP_NO = ('NGV2RTI2', 'DGV2RTI2',)),
#
                    _F(  GROUP_NO = ('NGV2RTI3', 'BGV2RTI3',)),
                    _F(  GROUP_NO = ('NGV2RTI3', 'CGV2RTI3',)),
                    _F(  GROUP_NO = ('NGV2RTI3', 'DGV2RTI3',)),
#
                    _F(  GROUP_NO = ('NGV2RTI4', 'BGV2RTI4',)),
                    _F(  GROUP_NO = ('NGV2RTI4', 'CGV2RTI4',)),
                    _F(  GROUP_NO = ('NGV2RTI4', 'DGV2RTI4',)),
#
# ANCRAGES BEQUILLES GV3
#
                    _F(  GROUP_NO = ('NGV3RTI1', 'BGV3RTI1',)),
                    _F(  GROUP_NO = ('NGV3RTI1', 'CGV3RTI1',)),
                    _F(  GROUP_NO = ('NGV3RTI1', 'DGV3RTI1',)),
#
                    _F(  GROUP_NO = ('NGV3RTI2', 'BGV3RTI2',)),
                    _F(  GROUP_NO = ('NGV3RTI2', 'CGV3RTI2',)),
                    _F(  GROUP_NO = ('NGV3RTI2', 'DGV3RTI2',)),
#
                    _F(  GROUP_NO = ('NGV3RTI3', 'BGV3RTI3',)),
                    _F(  GROUP_NO = ('NGV3RTI3', 'CGV3RTI3',)),
                    _F(  GROUP_NO = ('NGV3RTI3', 'DGV3RTI3',)),
#
                    _F(  GROUP_NO = ('NGV3RTI4', 'BGV3RTI4',)),
                    _F(  GROUP_NO = ('NGV3RTI4', 'CGV3RTI4',)),
                    _F(  GROUP_NO = ('NGV3RTI4', 'DGV3RTI4',)),
#
# ANCRAGES BEQUILLES GV4
#
                    _F(  GROUP_NO = ('NGV4RTI1', 'BGV4RTI1',)),
                    _F(  GROUP_NO = ('NGV4RTI1', 'CGV4RTI1',)),
                    _F(  GROUP_NO = ('NGV4RTI1', 'DGV4RTI1',)),
#
                    _F(  GROUP_NO = ('NGV4RTI2', 'BGV4RTI2',)),
                    _F(  GROUP_NO = ('NGV4RTI2', 'CGV4RTI2',)),
                    _F(  GROUP_NO = ('NGV4RTI2', 'DGV4RTI2',)),
#
                    _F(  GROUP_NO = ('NGV4RTI3', 'BGV4RTI3',)),
                    _F(  GROUP_NO = ('NGV4RTI3', 'CGV4RTI3',)),
                    _F(  GROUP_NO = ('NGV4RTI3', 'DGV4RTI3',)),
#
                    _F(  GROUP_NO = ('NGV4RTI4', 'BGV4RTI4',)),
                    _F(  GROUP_NO = ('NGV4RTI4', 'CGV4RTI4',)),
                    _F(  GROUP_NO = ('NGV4RTI4', 'DGV4RTI4',)),
#
# ANCRAGES BEQUILLES PP1
#
                    _F(  GROUP_NO = ('NPP1RTI1', 'BPP1RTI1',)),
                    _F(  GROUP_NO = ('NPP1RTI1', 'CPP1RTI1',)),
                    _F(  GROUP_NO = ('NPP1RTI1', 'DPP1RTI1',)),
#
                    _F(  GROUP_NO = ('NPP1RTI2', 'BPP1RTI2',)),
                    _F(  GROUP_NO = ('NPP1RTI2', 'CPP1RTI2',)),
                    _F(  GROUP_NO = ('NPP1RTI2', 'DPP1RTI2',)),
#
                    _F(  GROUP_NO = ('NPP1RTI3', 'BPP1RTI3',)),
                    _F(  GROUP_NO = ('NPP1RTI3', 'CPP1RTI3',)),
                    _F(  GROUP_NO = ('NPP1RTI3', 'DPP1RTI3',)),
#
# ANCRAGES BEQUILLES PP2
#
                    _F(  GROUP_NO = ('NPP2RTI1', 'BPP2RTI1',)),
                    _F(  GROUP_NO = ('NPP2RTI1', 'CPP2RTI1',)),
                    _F(  GROUP_NO = ('NPP2RTI1', 'DPP2RTI1',)),
#
                    _F(  GROUP_NO = ('NPP2RTI2', 'BPP2RTI2',)),
                    _F(  GROUP_NO = ('NPP2RTI2', 'CPP2RTI2',)),
                    _F(  GROUP_NO = ('NPP2RTI2', 'DPP2RTI2',)),
#
                    _F(  GROUP_NO = ('NPP2RTI3', 'BPP2RTI3',)),
                    _F(  GROUP_NO = ('NPP2RTI3', 'CPP2RTI3',)),
                    _F(  GROUP_NO = ('NPP2RTI3', 'DPP2RTI3',)),
#
# ANCRAGES BEQUILLES PP3
#
                    _F(  GROUP_NO = ('NPP3RTI1', 'BPP3RTI1',)),
                    _F(  GROUP_NO = ('NPP3RTI1', 'CPP3RTI1',)),
                    _F(  GROUP_NO = ('NPP3RTI1', 'DPP3RTI1',)),
#
                    _F(  GROUP_NO = ('NPP3RTI2', 'BPP3RTI2',)),
                    _F(  GROUP_NO = ('NPP3RTI2', 'CPP3RTI2',)),
                    _F(  GROUP_NO = ('NPP3RTI2', 'DPP3RTI2',)),
#
                    _F(  GROUP_NO = ('NPP3RTI3', 'BPP3RTI3',)),
                    _F(  GROUP_NO = ('NPP3RTI3', 'CPP3RTI3',)),
                    _F(  GROUP_NO = ('NPP3RTI3', 'DPP3RTI3',)),
#
# ANCRAGES BEQUILLES PP4
#
                    _F(  GROUP_NO = ('NPP4RTI1', 'BPP4RTI1',)),
                    _F(  GROUP_NO = ('NPP4RTI1', 'CPP4RTI1',)),
                    _F(  GROUP_NO = ('NPP4RTI1', 'DPP4RTI1',)),
#
                    _F(  GROUP_NO = ('NPP4RTI2', 'BPP4RTI2',)),
                    _F(  GROUP_NO = ('NPP4RTI2', 'CPP4RTI2',)),
                    _F(  GROUP_NO = ('NPP4RTI2', 'DPP4RTI2',)),
#
                    _F(  GROUP_NO = ('NPP4RTI3', 'BPP4RTI3',)),
                    _F(  GROUP_NO = ('NPP4RTI3', 'CPP4RTI3',)),
                    _F(  GROUP_NO = ('NPP4RTI3', 'DPP4RTI3',)),
#
# ANCRAGES DAB PP1
#
#
                    _F(  GROUP_NO = ('NPP1ARH1', 'BPP1ARH1',)),
                    _F(  GROUP_NO = ('NPP1ARH1', 'CPP1ARH1',)),
                    _F(  GROUP_NO = ('NPP1ARH1', 'DPP1ARH1',)),
#
                    _F(  GROUP_NO = ('NPP1ARH2', 'BPP1ARH2',)),
                    _F(  GROUP_NO = ('NPP1ARH2', 'CPP1ARH2',)),
                    _F(  GROUP_NO = ('NPP1ARH2', 'DPP1ARH2',)),
#
                    _F(  GROUP_NO = ('NPP1ARH3', 'BPP1ARH3',)),
                    _F(  GROUP_NO = ('NPP1ARH3', 'CPP1ARH3',)),
                    _F(  GROUP_NO = ('NPP1ARH3', 'DPP1ARH3',)),
#
# ANCRAGES DAB PP2
#
                    _F(  GROUP_NO = ('NPP2ARH1', 'BPP2ARH1',)),
                    _F(  GROUP_NO = ('NPP2ARH1', 'CPP2ARH1',)),
                    _F(  GROUP_NO = ('NPP2ARH1', 'DPP2ARH1',)),
#
                    _F(  GROUP_NO = ('NPP2ARH2', 'BPP2ARH2',)),
                    _F(  GROUP_NO = ('NPP2ARH2', 'CPP2ARH2',)),
                    _F(  GROUP_NO = ('NPP2ARH2', 'DPP2ARH2',)),
#
                    _F(  GROUP_NO = ('NPP2ARH3', 'BPP2ARH3',)),
                    _F(  GROUP_NO = ('NPP2ARH3', 'CPP2ARH3',)),
                    _F(  GROUP_NO = ('NPP2ARH3', 'DPP2ARH3',)),
#
# ANCRAGES DAB PP3
#
                    _F(  GROUP_NO = ('NPP3ARH1', 'BPP3ARH1',)),
                    _F(  GROUP_NO = ('NPP3ARH1', 'CPP3ARH1',)),
                    _F(  GROUP_NO = ('NPP3ARH1', 'DPP3ARH1',)),
#
                    _F(  GROUP_NO = ('NPP3ARH2', 'BPP3ARH2',)),
                    _F(  GROUP_NO = ('NPP3ARH2', 'CPP3ARH2',)),
                    _F(  GROUP_NO = ('NPP3ARH2', 'DPP3ARH2',)),
#
                    _F(  GROUP_NO = ('NPP3ARH3', 'BPP3ARH3',)),
                    _F(  GROUP_NO = ('NPP3ARH3', 'CPP3ARH3',)),
                    _F(  GROUP_NO = ('NPP3ARH3', 'DPP3ARH3',)),
#
# ANCRAGES DAB PP4
#
                    _F(  GROUP_NO = ('NPP4ARH1', 'BPP4ARH1',)),
                    _F(  GROUP_NO = ('NPP4ARH1', 'CPP4ARH1',)),
                    _F(  GROUP_NO = ('NPP4ARH1', 'DPP4ARH1',)),
#
                    _F(  GROUP_NO = ('NPP4ARH2', 'BPP4ARH2',)),
                    _F(  GROUP_NO = ('NPP4ARH2', 'CPP4ARH2',)),
                    _F(  GROUP_NO = ('NPP4ARH2', 'DPP4ARH2',)),
#
                    _F(  GROUP_NO = ('NPP4ARH3', 'BPP4ARH3',)),
                    _F(  GROUP_NO = ('NPP4ARH3', 'CPP4ARH3',)),
                    _F(  GROUP_NO = ('NPP4ARH3', 'DPP4ARH3',))),
                            DDL_IMPO=_F( 
                                       GROUP_NO = 'SOL',
                                        DX = 0.,
                                        DY = 0.,
                                        DZ = 0.,
                                        DRX = 0.,
                                        DRY = 0.,
                                        DRZ = 0.),LIAISON_UNIF=(
#
#     CPP
#----------------------------
# LA CUVE
#
                    _F( 
                                   GROUP_NO = ( 'NCU1ANCV', 'BCU1ANCV', ),
                                   DDL = ( 'DZ', )),
                    _F( 
                                   GROUP_NO = ( 'NCU2ANCV', 'BCU2ANCV', ),
                                   DDL = ( 'DZ', )),
                    _F( 
                                   GROUP_NO = ( 'NCU3ANCV', 'BCU3ANCV', ),
                                   DDL = ( 'DZ', )),
                    _F( 
                                   GROUP_NO = ( 'NCU4ANCV', 'BCU4ANCV', ),
                                   DDL = ( 'DZ', )),
                    _F( 
                                   GROUP_NO = ( 'NCU1ANCH', 'BCU1ANCH', ),
                                   DDL = ( 'DX',  'DY', )),
                    _F( 
                                   GROUP_NO = ( 'NCU2ANCH', 'BCU2ANCH', ),
                                   DDL = ( 'DX',  'DY', )),
                    _F( 
                                   GROUP_NO = ( 'NCU3ANCH', 'BCU3ANCH', ),
                                   DDL = ( 'DX',  'DY', )),
                    _F( 
                                   GROUP_NO = ('NCU4ANCH', 'BCU4ANCH',),
                                   DDL = ( 'DX',  'DY', )))
#
                        )

#
# ASSEMBLAGE DE LA MATRICE
#+++++++++++++++++++++++++++++++++++++++++
MACRO_MATR_ASSE(  MODELE=MODELE,
                  SOLVEUR=_F( METHODE = 'MULT_FRONT'),
                   CARA_ELEM=CARA,
                   CHARGE=CH_CL,
                   CHAM_MATER=CHMAT,
                   NUME_DDL=CO("NUME_DDL"),MATR_ASSE=(
                   _F(  MATRICE = CO("KASSE"), OPTION = 'RIGI_MECA'),
                             _F(  MATRICE = CO("MASSE"), OPTION = 'MASS_MECA'))
                )

MODE=MODE_ITER_INV(   MATR_A=KASSE,   MATR_B=MASSE,
                         CALC_FREQ=_F( 
                           FREQ = (1.259,),
                           OPTION = 'PROCHE'),
                      )

TEST_RESU( RESU=_F(  RESULTAT = MODE,
                  PARA = 'FREQ',  NUME_ORDRE = 1,
                  VALE = 1.259)
          )

FIN()
#
#
