# MODIF  DATE 09/03/2004   AUTEUR CIBHHPD S.VANDENBERGHE 
# TITRE DENT HELICOIDALE D'ENGRENAGE
#            CONFIGURATION MANAGEMENT OF EDF VERSION
# ======================================================================
# COPYRIGHT (C) 1991 - 2001  EDF R&D                  WWW.CODE-ASTER.ORG
# THIS PROGRAM IS FREE SOFTWARE; YOU CAN REDISTRIBUTE IT AND/OR MODIFY
# IT UNDER THE TERMS OF THE GNU GENERAL PUBLIC LICENSE AS PUBLISHED BY
# THE FREE SOFTWARE FOUNDATION; EITHER VERSION 2 OF THE LICENSE, OR   
# (AT YOUR OPTION) ANY LATER VERSION.                                 
#
# THIS PROGRAM IS DISTRIBUTED IN THE HOPE THAT IT WILL BE USEFUL, BUT 
# WITHOUT ANY WARRANTY; WITHOUT EVEN THE IMPLIED WARRANTY OF          
# MERCHANTABILITY OR FITNESS FOR A PARTICULAR PURPOSE. SEE THE GNU    
# GENERAL PUBLIC LICENSE FOR MORE DETAILS.                            
#
# YOU SHOULD HAVE RECEIVED A COPY OF THE GNU GENERAL PUBLIC LICENSE   
# ALONG WITH THIS PROGRAM; IF NOT, WRITE TO EDF R&D CODE_ASTER,       
#    1 AVENUE DU GENERAL DE GAULLE, 92141 CLAMART CEDEX, FRANCE.      
# ======================================================================
DEBUT( CODE=_F(  NOM = 'YYYY300A',NIV_PUB_WEB='INTRANET') )

MAIL=LIRE_MAILLAGE(   )

#
# DEFINITION DES GROUPES DE NOEUDS
MAIL=DEFI_GROUP( reuse=MAIL,   MAILLAGE=MAIL,CREA_GROUP_NO=(
                       _F(  NOM = 'SOMMET',
                                       NOEUD = ( 'NO351',   'NO1351',
                                                 'NO2351',  'NO3351',
                                                 'NO4351',  'NO5351',
                                                 'NO6351',  'NO7351',
                                                 'NO8351',  'NO9351',
                                                 'NO10351', 'NO11351',
                                                 'NO12351', 'NO13351',
                                                 'NO14351', 'NO15351',
                                                 'NO16351', 'NO17351',
                                                 'NO18351', 'NO19351',
                                                 'NO20351', 'NO21351',
                                                 'NO22351', 'NO23351',
                                                 'NO24351', 'NO25351',
                                                 'NO26351', 'NO27351',
                                                 'NO28351', 'NO29351',
                                                 'NO30351', 'NO31351',
                                                 'NO32351',
                                               )),
                       _F(  NOM = 'CREUX_D',
                                       NOEUD = ( 'NO53',    'NO54',
                                                 'NO55',    'NO56',
                                                 'NO57',    'NO1053',
                                                 'NO1055',  'NO1057',
                                                 'NO2053',  'NO2054',
                                                 'NO2055',  'NO2056',
                                                 'NO2057',  'NO3053',
                                                 'NO3055',  'NO3057',
                                                 'NO4053',  'NO4054',
                                                 'NO4055',  'NO4056',
                                                 'NO4057',  'NO5053',
                                                 'NO5055',  'NO5057',
                                                 'NO6053',  'NO6054',
                                                 'NO6055',  'NO6056',
                                                 'NO6057',  'NO7053',
                                                 'NO7055',  'NO7057',
                                                 'NO8053',  'NO8054',
                                                 'NO8055',  'NO8056',
                                                 'NO8057',  'NO9053',
                                                 'NO9055',  'NO9057',
                                                 'NO10053', 'NO10054',
# ... 17 like lines cut
                                                 'NO18057',
                                                 'NO19053', 'NO19055',
                                                 'NO19057', 'NO20053',
                                                 'NO20054', 'NO20055',
                                                 'NO20056', 'NO20057',
                                                 'NO21053', 'NO21055',
                                                 'NO21057', 'NO22053',
                                                 'NO22054', 'NO22055',
                                                 'NO22056', 'NO22057',
                                                 'NO23053', 'NO23055',
                                                 'NO23057', 'NO24053',
                                                 'NO24054', 'NO24055',
                                                 'NO24056', 'NO24057',
                                                 'NO25053', 'NO25055',
                                                 'NO25057', 'NO26053',
                                                 'NO26054', 'NO26055',
                                                 'NO26056', 'NO26057',
                                                 'NO27053', 'NO27055',
                                                 'NO27057', 'NO28053',
                                                 'NO28054', 'NO28055',
                                                 'NO28056', 'NO28057',
# ... 8 like lines cut
                                              )),
                       _F(  NOM = 'BORD',
                                       NOEUD = (
     'NO1',     'NO2',     'NO3',     'NO4',     'NO5',     'NO6',     'NO7',     'NO8',
     'NO9',    'NO10',    'NO11',    'NO12',    'NO13',    'NO24',    'NO25',    'NO26',
    'NO27',    'NO28',    'NO29',    'NO83',    'NO84',    'NO85',    'NO86',    'NO87',
    'NO88',
  'NO1002',  'NO1004',  'NO1006',  'NO1008',  'NO1010',  'NO1011',  'NO1013',  'NO1025',
  'NO1027',  'NO1029',  'NO1083',  'NO1085',  'NO1087',
  'NO2001',  'NO2002',  'NO2003',  'NO2004',  'NO2005',  'NO2006',  'NO2007',  'NO2008',
  'NO2009',  'NO2010',  'NO2011',  'NO2012',  'NO2013',  'NO2024',  'NO2025',  'NO2026',
  'NO2027',  'NO2028',  'NO2029',  'NO2083',  'NO2084',  'NO2085',  'NO2086',  'NO2087',
  'NO2088',
  'NO3002',  'NO3004',  'NO3006',  'NO3008',  'NO3010',  'NO3011',  'NO3013',  'NO3025',
  'NO3027',  'NO3029',  'NO3083',  'NO3085',  'NO3087',
  'NO4001',  'NO4002',  'NO4003',  'NO4004',  'NO4005',  'NO4006',  'NO4007',  'NO4008',
  'NO4009',  'NO4010',  'NO4011',  'NO4012',  'NO4013',  'NO4024',  'NO4025',  'NO4026',
  'NO4027',  'NO4028',  'NO4029',  'NO4083',  'NO4084',  'NO4085',  'NO4086',  'NO4087',
  'NO4088',
  'NO5002',  'NO5004',  'NO5006',  'NO5008',  'NO5010',  'NO5011',  'NO5013',  'NO5025',
  'NO5027',  'NO5029',  'NO5083',  'NO5085',  'NO5087',
  'NO6001',  'NO6002',  'NO6003',  'NO6004',  'NO6005',  'NO6006',  'NO6007',  'NO6008',
  'NO6009',  'NO6010',  'NO6011',  'NO6012',  'NO6013',  'NO6024',  'NO6025',  'NO6026',
  'NO6027',  'NO6028',  'NO6029',  'NO6083',  'NO6084',  'NO6085',  'NO6086',  'NO6087',
  'NO6088',
  'NO7002',  'NO7004',  'NO7006',  'NO7008',  'NO7010',  'NO7011',  'NO7013',  'NO7025',
  'NO7027',  'NO7029',  'NO7083',  'NO7085',  'NO7087',
  'NO8001',  'NO8002',  'NO8003',  'NO8004',  'NO8005',  'NO8006',  'NO8007',  'NO8008',
  'NO8009',  'NO8010',  'NO8011',  'NO8012',  'NO8013',  'NO8024',  'NO8025',  'NO8026',
  'NO8027',  'NO8028',  'NO8029',  'NO8083',  'NO8084',  'NO8085',  'NO8086',  'NO8087',
  'NO8088',
  'NO9002',  'NO9004',  'NO9006',  'NO9008',  'NO9010',  'NO9011',  'NO9013',  'NO9025',
  'NO9027',  'NO9029',  'NO9083',  'NO9085',  'NO9087',
 'NO10001', 'NO10002', 'NO10003', 'NO10004', 'NO10005', 'NO10006', 'NO10007', 'NO10008',
 'NO10009', 'NO10010', 'NO10011', 'NO10012', 'NO10013', 'NO10024', 'NO10025', 'NO10026',
 'NO10027', 'NO10028', 'NO10029', 'NO10083', 'NO10084', 'NO10085', 'NO10086', 'NO10087',
 'NO10088',
 'NO11002', 'NO11004', 'NO11006', 'NO11008', 'NO11010', 'NO11011', 'NO11013', 'NO11025',
 'NO11027', 'NO11029', 'NO11083', 'NO11085', 'NO11087',
 'NO12001', 'NO12002', 'NO12003', 'NO12004', 'NO12005', 'NO12006', 'NO12007', 'NO12008',
 'NO12009', 'NO12010', 'NO12011', 'NO12012', 'NO12013', 'NO12024', 'NO12025', 'NO12026',
 'NO12027', 'NO12028', 'NO12029', 'NO12083', 'NO12084', 'NO12085', 'NO12086', 'NO12087',
 'NO12088',
 'NO13002', 'NO13004', 'NO13006', 'NO13008', 'NO13010', 'NO13011', 'NO13013', 'NO13025',
 'NO13027', 'NO13029', 'NO13083', 'NO13085', 'NO13087',
 'NO14001', 'NO14002', 'NO14003', 'NO14004', 'NO14005', 'NO14006', 'NO14007', 'NO14008',
 'NO14009', 'NO14010', 'NO14011', 'NO14012', 'NO14013', 'NO14024', 'NO14025', 'NO14026',
 'NO14027', 'NO14028', 'NO14029', 'NO14083', 'NO14084', 'NO14085', 'NO14086', 'NO14087',
 'NO14088',
 'NO15002', 'NO15004', 'NO15006', 'NO15008', 'NO15010', 'NO15011', 'NO15013', 'NO15025',
 'NO15027', 'NO15029', 'NO15083', 'NO15085', 'NO15087',
 'NO16001', 'NO16002', 'NO16003', 'NO16004', 'NO16005', 'NO16006', 'NO16007', 'NO16008',
 'NO16009', 'NO16010', 'NO16011', 'NO16012', 'NO16013', 'NO16024', 'NO16025', 'NO16026',
 'NO16027', 'NO16028', 'NO16029', 'NO16083', 'NO16084', 'NO16085', 'NO16086', 'NO16087',
 'NO16088',
 'NO17002', 'NO17004', 'NO17006', 'NO17008', 'NO17010', 'NO17011', 'NO17013', 'NO17025',
 'NO17027', 'NO17029', 'NO17083', 'NO17085', 'NO17087',
 'NO18001', 'NO18002', 'NO18003', 'NO18004', 'NO18005', 'NO18006', 'NO18007', 'NO18008',
 'NO18009', 'NO18010', 'NO18011', 'NO18012', 'NO18013', 'NO18024', 'NO18025', 'NO18026',
 'NO18027', 'NO18028', 'NO18029', 'NO18083', 'NO18084', 'NO18085', 'NO18086', 'NO18087',
 'NO18088',
 'NO19002', 'NO19004', 'NO19006', 'NO19008', 'NO19010', 'NO19011', 'NO19013', 'NO19025',
 'NO19027', 'NO19029', 'NO19083', 'NO19085', 'NO19087',
 'NO20001', 'NO20002', 'NO20003', 'NO20004', 'NO20005', 'NO20006', 'NO20007', 'NO20008',
 'NO20009', 'NO20010', 'NO20011', 'NO20012', 'NO20013', 'NO20024', 'NO20025', 'NO20026',
 'NO20027', 'NO20028', 'NO20029', 'NO20083', 'NO20084', 'NO20085', 'NO20086', 'NO20087',
 'NO20088',
 'NO21002', 'NO21004', 'NO21006', 'NO21008', 'NO21010', 'NO21011', 'NO21013', 'NO21025',
 'NO21027', 'NO21029', 'NO21083', 'NO21085', 'NO21087',
 'NO22001', 'NO22002', 'NO22003', 'NO22004', 'NO22005', 'NO22006', 'NO22007', 'NO22008',
 'NO22009', 'NO22010', 'NO22011', 'NO22012', 'NO22013', 'NO22024', 'NO22025', 'NO22026',
 'NO22027', 'NO22028', 'NO22029', 'NO22083', 'NO22084', 'NO22085', 'NO22086', 'NO22087',
 'NO22088',
 'NO23002', 'NO23004', 'NO23006', 'NO23008', 'NO23010', 'NO23011', 'NO23013', 'NO23025',
 'NO23027', 'NO23029', 'NO23083', 'NO23085', 'NO23087',
 'NO24001', 'NO24002', 'NO24003', 'NO24004', 'NO24005', 'NO24006', 'NO24007', 'NO24008',
 'NO24009', 'NO24010', 'NO24011', 'NO24012', 'NO24013', 'NO24024', 'NO24025', 'NO24026',
 'NO24027', 'NO24028', 'NO24029', 'NO24083', 'NO24084', 'NO24085', 'NO24086', 'NO24087',
 'NO24088',
 'NO25002', 'NO25004', 'NO25006', 'NO25008', 'NO25010', 'NO25011', 'NO25013', 'NO25025',
 'NO25027', 'NO25029', 'NO25083', 'NO25085', 'NO25087',
 'NO26001', 'NO26002', 'NO26003', 'NO26004', 'NO26005', 'NO26006', 'NO26007', 'NO26008',
 'NO26009', 'NO26010', 'NO26011', 'NO26012', 'NO26013', 'NO26024', 'NO26025', 'NO26026',
 'NO26027', 'NO26028', 'NO26029', 'NO26083', 'NO26084', 'NO26085', 'NO26086', 'NO26087',
 'NO26088',
 'NO27002', 'NO27004', 'NO27006', 'NO27008', 'NO27010', 'NO27011', 'NO27013', 'NO27025',
 'NO27027', 'NO27029', 'NO27083', 'NO27085', 'NO27087',
 'NO28001', 'NO28002', 'NO28003', 'NO28004', 'NO28005', 'NO28006', 'NO28007', 'NO28008',
 'NO28009', 'NO28010', 'NO28011', 'NO28012', 'NO28013', 'NO28024', 'NO28025', 'NO28026',
 'NO28027', 'NO28028', 'NO28029', 'NO28083', 'NO28084', 'NO28085', 'NO28086', 'NO28087',
 'NO28088',
 'NO29002', 'NO29004', 'NO29006', 'NO29008', 'NO29010', 'NO29011', 'NO29013', 'NO29025',
 'NO29027', 'NO29029', 'NO29083', 'NO29085', 'NO29087',
 'NO30001', 'NO30002', 'NO30003', 'NO30004', 'NO30005', 'NO30006', 'NO30007', 'NO30008',
 'NO30009', 'NO30010', 'NO30011', 'NO30012', 'NO30013', 'NO30024', 'NO30025', 'NO30026',
 'NO30027', 'NO30028', 'NO30029', 'NO30083', 'NO30084', 'NO30085', 'NO30086', 'NO30087',
 'NO30088',
 'NO31002', 'NO31004', 'NO31006', 'NO31008', 'NO31010', 'NO31011', 'NO31013', 'NO31025',
 'NO31027', 'NO31029', 'NO31083', 'NO31085', 'NO31087',
 'NO32001', 'NO32002', 'NO32003', 'NO32004', 'NO32005', 'NO32006', 'NO32007', 'NO32008',
 'NO32009', 'NO32010', 'NO32011', 'NO32012', 'NO32013', 'NO32024', 'NO32025', 'NO32026',
 'NO32027', 'NO32028', 'NO32029', 'NO32083', 'NO32084', 'NO32085', 'NO32086', 'NO32087',
 'NO32088',
                                         )))
               )

#
# DEFINITION DU MODELE
MODELE=AFFE_MODELE(    MAILLAGE=MAIL,
                         AFFE=_F(  TOUT = 'OUI',
                       PHENOMENE = 'MECANIQUE',
                       MODELISATION = '3D')  )

#
# DEFINITION DU MATERIAU
ACIER=DEFI_MATERIAU(    ELAS=_F(  E = 2.1E05, NU = 0.3,
                                 RHO = 7.8E-9)
                      )

#
# ATTRIBUTION DU MATERIAU
CHMAT=AFFE_MATERIAU(    MAILLAGE=MAIL,
                          AFFE=_F(  TOUT = 'OUI',
                                 MATER = ACIER)  )

#
# DEFINITION DES CONDITIONS AUX LIMITES ET CHARGEMENTS
CHARGT=AFFE_CHAR_MECA(    MODELE=MODELE,
                            DDL_IMPO=_F(  GROUP_NO = 'BORD',
                                       DX = 0.,  DY = 0.,  DZ = 0.),FORCE_NODALE=(

     _F( NOEUD = 'NO345', FX = 61.512,     FY = 38.817,     FZ = 36.190),
     _F( NOEUD = 'NO346', FX = -248.31,     FY = -151.58,     FZ = -144.23),
     _F( NOEUD = 'NO347', FX = 122.66,     FY = 80.237,     FZ = 72.677),
     _F( NOEUD = 'NO348', FX = -247.00,     FY = -162.04,     FZ = -146.50),
     _F( NOEUD = 'NO349', FX = 61.150,     FY = 41.421,     FZ = 36.482),
     _F( NOEUD = 'NO1345', FX = -247.18,     FY = -153.42,     FZ = -143.69),
     _F( NOEUD = 'NO1347', FX = -492.98,     FY = -317.29,     FZ = -290.70),
     _F( NOEUD = 'NO1349', FX = -245.80,     FY = -163.86,     FZ = -147.04),
     _F( NOEUD = 'NO2345', FX = 121.81,     FY = 79.390,     FZ = 72.371),
     _F( NOEUD = 'NO2346', FX = -487.38,     FY = -317.67,     FZ = -288.45),
     _F( NOEUD = 'NO2347', FX = 242.82,     FY = 164.00,     FZ = 145.36),
     _F( NOEUD = 'NO2348', FX = -484.17,     FY = -338.50,     FZ = -292.99),
     _F( NOEUD = 'NO2349', FX = 121.00,     FY = 84.613,     FZ = 72.969),
     _F( NOEUD = 'NO3345', FX = -240.13,     FY = -164.19,     FZ = -143.68),
     _F( NOEUD = 'NO3347', FX = -478.40,     FY = -338.80,     FZ = -290.67),
     _F( NOEUD = 'NO3349', FX = -238.32,     FY = -174.61,     FZ = -147.06),
     _F( NOEUD = 'NO4345', FX = 118.17,     FY = 84.705,     FZ = 72.374),
     _F( NOEUD = 'NO4346', FX = -472.83,     FY = -338.92,     FZ = -288.47),
     _F( NOEUD = 'NO4347', FX = 235.33,     FY = 174.61,     FZ = 145.37),
     _F( NOEUD = 'NO4348', FX = -468.63,     FY = -359.71,     FZ = -292.97),
# ... 112 like lines cut
     _F( NOEUD = 'NO32349', FX = 23.549,     FY = 69.989,     FZ = 36.475))
                        )

#
# RESOLUTION
DEF=MECA_STATIQUE(    MODELE=MODELE,
                        CHAM_MATER=CHMAT,
                        EXCIT=_F(  CHARGE = CHARGT)  )

#
# RECUPERATION DU CHAMP DE DEPLACEMENTS
U=CREA_CHAMP(  OPERATION='EXTR', TYPE_CHAM='NOEU_DEPL_R',
NOM_CHAM='DEPL', RESULTAT=DEF,
                 NUME_ORDRE=1
                  )

#
# CALCUL DES CONTRAINTES
DEF=CALC_ELEM(reuse=DEF, RESULTAT=DEF,
                    MODELE=MODELE,
                    CHAM_MATER=CHMAT,
                    OPTION='SIGM_ELNO_DEPL',
                    NUME_ORDRE=1,);


ENERGIE=POST_ELEM(    ENER_POT=_F(  TOUT = 'OUI'),
                        MODELE=MODELE,
                        CHAM_MATER=CHMAT,
                        CHAM_GD=U
                    )

#
# TEST_RESU DE L ENERGIE POTENTIELLE
#
TEST_TABLE(       TABLE=ENERGIE,
                  FILTRE=_F(  NOM_PARA = 'LIEU',
                           VALE_K = 'MAIL'),
                NOM_PARA='TOTALE',
                    VALE=768.5,
               PRECISION=0.005      )

#
# TEST_RESU DES DEPLACEMENTS
#
# F1
TEST_RESU(CHAM_NO=(   _F(   CHAM_GD = U,
                         NOM_CMP = 'DX',
                         NOEUD = 'NO351',
                         VALE = -0.0646,
                         PRECISION = 0.003),
              _F(   CHAM_GD = U,
                         NOM_CMP = 'DY',
                         NOEUD = 'NO351',
                         VALE = -0.0129,
                         PRECISION = 0.04),
              _F(   CHAM_GD = U,
                         NOM_CMP = 'DZ',
                         NOEUD = 'NO351',
                         VALE = -0.0512,
                         PRECISION = 0.013),
# F3
              _F(   CHAM_GD = U,
                         NOM_CMP = 'DX',
                         NOEUD = 'NO2351',
                         VALE = -0.0591,
                         PRECISION = 0.004),
              _F(   CHAM_GD = U,
                         NOM_CMP = 'DY',
                         NOEUD = 'NO2351',
                         VALE = -0.00844,
                         PRECISION = 0.011),
              _F(   CHAM_GD = U,
                         NOM_CMP = 'DZ',
                         NOEUD = 'NO2351',
                         VALE = -0.0444,
                         PRECISION = 0.016),
# F5
              _F(   CHAM_GD = U,
                         NOM_CMP = 'DX',
                         NOEUD = 'NO4351',
                         VALE = -0.0565,
                         PRECISION = 0.002),
              _F(   CHAM_GD = U,
                         NOM_CMP = 'DY',
                         NOEUD = 'NO4351',
                         VALE = -0.00786,
                         PRECISION = 0.003),
              _F(   CHAM_GD = U,
                         NOM_CMP = 'DZ',
                         NOEUD = 'NO4351',
                         VALE = -0.0388,
                         PRECISION = 0.001),
# F7
              _F(   CHAM_GD = U,
                         NOM_CMP = 'DX',
                         NOEUD = 'NO6351',
                         VALE = -0.0545,
                         PRECISION = 0.001),
              _F(   CHAM_GD = U,
                         NOM_CMP = 'DY',
                         NOEUD = 'NO6351',
                         VALE = -0.00870,
                         PRECISION = 0.005),
              _F(   CHAM_GD = U,
                         NOM_CMP = 'DZ',
                         NOEUD = 'NO6351',
                         VALE = -0.0351,
                         PRECISION = 0.001),
# F9
              _F(   CHAM_GD = U,
                         NOM_CMP = 'DX',
                         NOEUD = 'NO8351',
                         VALE = -0.0527,
                         PRECISION = 0.002),
              _F(   CHAM_GD = U,
                         NOM_CMP = 'DY',
                         NOEUD = 'NO8351',
                         VALE = -0.0101,
                         PRECISION = 0.004),
              _F(   CHAM_GD = U,
                         NOM_CMP = 'DZ',
                         NOEUD = 'NO8351',
                         VALE = -0.0322,
                         PRECISION = 0.002),
# F11
              _F(   CHAM_GD = U,
                         NOM_CMP = 'DX',
                         NOEUD = 'NO10351',
                         VALE = -0.0512,
                         PRECISION = 0.001),
              _F(   CHAM_GD = U,
                         NOM_CMP = 'DY',
                         NOEUD = 'NO10351',
                         VALE = -0.0118,
                         PRECISION = 0.004),
              _F(   CHAM_GD = U,
                         NOM_CMP = 'DZ',
                         NOEUD = 'NO10351',
                         VALE = -0.0302,
                         PRECISION = 0.003),
# F13
              _F(   CHAM_GD = U,
                         NOM_CMP = 'DX',
                         NOEUD = 'NO12351',
                         VALE = -0.0501,
                         PRECISION = 0.001),
              _F(   CHAM_GD = U,
                         NOM_CMP = 'DY',
                         NOEUD = 'NO12351',
                         VALE = -0.0137,
                         PRECISION = 0.004),
              _F(   CHAM_GD = U,
                         NOM_CMP = 'DZ',
                         NOEUD = 'NO12351',
                         VALE = -0.0287,
                         PRECISION = 0.002),
# F15
              _F(   CHAM_GD = U,
                         NOM_CMP = 'DX',
                         NOEUD = 'NO14351',
                         VALE = -0.0492,
                         PRECISION = 0.001),
              _F(   CHAM_GD = U,
                         NOM_CMP = 'DY',
                         NOEUD = 'NO14351',
                         VALE = -0.0157,
                         PRECISION = 0.003),
              _F(   CHAM_GD = U,
                         NOM_CMP = 'DZ',
                         NOEUD = 'NO14351',
                         VALE = -0.0277,
                         PRECISION = 0.001),
# F17
              _F(   CHAM_GD = U,
                         NOM_CMP = 'DX',
                         NOEUD = 'NO16351',
                         VALE = -0.0485,
                         PRECISION = 0.001),
              _F(   CHAM_GD = U,
                         NOM_CMP = 'DY',
                         NOEUD = 'NO16351',
                         VALE = -0.0178,
                         PRECISION = 0.004),
              _F(   CHAM_GD = U,
                         NOM_CMP = 'DZ',
                         NOEUD = 'NO16351',
                         VALE = -0.0271,
                         PRECISION = 0.001),
# F19
              _F(   CHAM_GD = U,
                         NOM_CMP = 'DX',
                         NOEUD = 'NO18351',
                         VALE = -0.0479,
                         PRECISION = 0.001),
              _F(   CHAM_GD = U,
                         NOM_CMP = 'DY',
                         NOEUD = 'NO18351',
                         VALE = -0.0199,
                         PRECISION = 0.002),
              _F(   CHAM_GD = U,
                         NOM_CMP = 'DZ',
                         NOEUD = 'NO18351',
                         VALE = -0.0268,
                         PRECISION = 0.001),
# F21
              _F(   CHAM_GD = U,
                         NOM_CMP = 'DX',
                         NOEUD = 'NO20351',
                         VALE = -0.0473,
                         PRECISION = 0.001),
              _F(   CHAM_GD = U,
                         NOM_CMP = 'DY',
                         NOEUD = 'NO20351',
                         VALE = -0.0221,
                         PRECISION = 0.004),
              _F(   CHAM_GD = U,
                         NOM_CMP = 'DZ',
                         NOEUD = 'NO20351',
                         VALE = -0.0268,
                         PRECISION = 0.002),
# F23
              _F(   CHAM_GD = U,
                         NOM_CMP = 'DX',
                         NOEUD = 'NO22351',
                         VALE = -0.0468,
                         PRECISION = 0.002),
              _F(   CHAM_GD = U,
                         NOM_CMP = 'DY',
                         NOEUD = 'NO22351',
                         VALE = -0.0242,
                         PRECISION = 0.002),
              _F(   CHAM_GD = U,
                         NOM_CMP = 'DZ',
                         NOEUD = 'NO22351',
                         VALE = -0.0270,
                         PRECISION = 0.002),
# F25
              _F(   CHAM_GD = U,
                         NOM_CMP = 'DX',
                         NOEUD = 'NO24351',
                         VALE = -0.0461,
                         PRECISION = 0.001),
              _F(   CHAM_GD = U,
                         NOM_CMP = 'DY',
                         NOEUD = 'NO24351',
                         VALE = -0.0262,
                         PRECISION = 0.002),
              _F(   CHAM_GD = U,
                         NOM_CMP = 'DZ',
                         NOEUD = 'NO24351',
                         VALE = -0.0273,
                         PRECISION = 0.001),
# F27
              _F(   CHAM_GD = U,
                         NOM_CMP = 'DX',
                         NOEUD = 'NO26351',
                         VALE = -0.0452,
                         PRECISION = 0.001),
              _F(   CHAM_GD = U,
                         NOM_CMP = 'DY',
                         NOEUD = 'NO26351',
                         VALE = -0.0278,
                         PRECISION = 0.001),
              _F(   CHAM_GD = U,
                         NOM_CMP = 'DZ',
                         NOEUD = 'NO26351',
                         VALE = -0.0278,
                         PRECISION = 0.001),
# F29
              _F(   CHAM_GD = U,
                         NOM_CMP = 'DX',
                         NOEUD = 'NO28351',
                         VALE = -0.0435,
                         PRECISION = 0.003),
              _F(   CHAM_GD = U,
                         NOM_CMP = 'DY',
                         NOEUD = 'NO28351',
                         VALE = -0.0287,
                         PRECISION = 0.003),
              _F(   CHAM_GD = U,
                         NOM_CMP = 'DZ',
                         NOEUD = 'NO28351',
                         VALE = -0.0281,
                         PRECISION = 0.001),
# F31
              _F(   CHAM_GD = U,
                         NOM_CMP = 'DX',
                         NOEUD = 'NO30351',
                         VALE = -0.0409,
                         PRECISION = 0.001),
              _F(   CHAM_GD = U,
                         NOM_CMP = 'DY',
                         NOEUD = 'NO30351',
                         VALE = -0.0278,
                         PRECISION = 0.003),
              _F(   CHAM_GD = U,
                         NOM_CMP = 'DZ',
                         NOEUD = 'NO30351',
                         VALE = -0.0278,
                         PRECISION = 0.003),
# F33
              _F(   CHAM_GD = U,
                         NOM_CMP = 'DX',
                         NOEUD = 'NO32351',
                         VALE = -0.0376,
                         PRECISION = 0.009),
              _F(   CHAM_GD = U,
                         NOM_CMP = 'DY',
                         NOEUD = 'NO32351',
                         VALE = -0.0244,
                         PRECISION = 0.07),
              _F(   CHAM_GD = U,
                         NOM_CMP = 'DZ',
                         NOEUD = 'NO32351',
                         VALE = -0.0258,
                         PRECISION = 0.003))
          )

#
T1=POST_RELEVE_T(    ACTION=_F(  GROUP_NO = 'CREUX_D',
                                INTITULE = 'SIG',
                                RESULTAT = DEF,
                                NOM_CHAM='SIGM_ELNO_DEPL',
                                NUME_ORDRE=1,
                                INVARIANT = 'OUI',
                                OPERATION = 'EXTRACTION')
            )

# E1

TEST_TABLE(       TABLE=T1,
                    FILTRE=_F(  NOM_PARA = 'NOEUD',
                             VALE_K = 'NO55'),
                  NOM_PARA='VMIS',
                 PRECISION=0.093,
                      VALE=723.            )

# E3

TEST_TABLE(       TABLE=T1,
                    FILTRE=_F(  NOM_PARA = 'NOEUD',
                             VALE_K = 'NO2055'),
                  NOM_PARA='VMIS',
                 PRECISION=0.019,
                      VALE=1150.            )

# E5

TEST_TABLE(       TABLE=T1,
                    FILTRE=_F(  NOM_PARA = 'NOEUD',
                             VALE_K = 'NO4055'),
                  NOM_PARA='VMIS',
                 PRECISION=0.041,
                      VALE=1350.            )

# E7

TEST_TABLE(       TABLE=T1,
                    FILTRE=_F(  NOM_PARA = 'NOEUD',
                             VALE_K = 'NO6055'),
                  NOM_PARA='VMIS',
                 PRECISION=0.035,
                      VALE=1360.            )

# E9

TEST_TABLE(       TABLE=T1,
                    FILTRE=_F(  NOM_PARA = 'NOEUD',
                             VALE_K = 'NO8055'),
                  NOM_PARA='VMIS',
                 PRECISION=0.047,
                      VALE=1350.            )

# E9

TEST_TABLE(       TABLE=T1,
                    FILTRE=_F(  NOM_PARA = 'NOEUD',
                             VALE_K = 'NO10055'),
                  NOM_PARA='VMIS',
                 PRECISION=0.039,
                      VALE=1300.            )

# E13

TEST_TABLE(       TABLE=T1,
                    FILTRE=_F(  NOM_PARA = 'NOEUD',
                             VALE_K = 'NO12055'),
                  NOM_PARA='VMIS',
                 PRECISION=0.043,
                      VALE=1270.            )

# E15

TEST_TABLE(       TABLE=T1,
                    FILTRE=_F(  NOM_PARA = 'NOEUD',
                             VALE_K = 'NO14055'),
                  NOM_PARA='VMIS',
                 PRECISION=0.039,
                      VALE=1240.            )

# E17

TEST_TABLE(       TABLE=T1,
                    FILTRE=_F(  NOM_PARA = 'NOEUD',
                             VALE_K = 'NO16055'),
                  NOM_PARA='VMIS',
                 PRECISION=0.035,
                      VALE=1220.            )

# E19

TEST_TABLE(       TABLE=T1,
                    FILTRE=_F(  NOM_PARA = 'NOEUD',
                             VALE_K = 'NO18055'),
                  NOM_PARA='VMIS',
                 PRECISION=0.04,
                      VALE=1220.            )

# E21

TEST_TABLE(       TABLE=T1,
                    FILTRE=_F(  NOM_PARA = 'NOEUD',
                             VALE_K = 'NO20055'),
                  NOM_PARA='VMIS',
                 PRECISION=0.038,
                      VALE=1220.            )

# E23

TEST_TABLE(       TABLE=T1,
                    FILTRE=_F(  NOM_PARA = 'NOEUD',
                             VALE_K = 'NO22055'),
                  NOM_PARA='VMIS',
                 PRECISION=0.04,
                      VALE=1230.            )

# E25

TEST_TABLE(       TABLE=T1,
                    FILTRE=_F(  NOM_PARA = 'NOEUD',
                             VALE_K = 'NO24055'),
                  NOM_PARA='VMIS',
                 PRECISION=0.039,
                      VALE=1240.            )

# E27

TEST_TABLE(       TABLE=T1,
                    FILTRE=_F(  NOM_PARA = 'NOEUD',
                             VALE_K = 'NO26055'),
                  NOM_PARA='VMIS',
                 PRECISION=0.041,
                      VALE=1250.            )

# E29

TEST_TABLE(       TABLE=T1,
                    FILTRE=_F(  NOM_PARA = 'NOEUD',
                             VALE_K = 'NO28055'),
                  NOM_PARA='VMIS',
                 PRECISION=0.045,
                      VALE=1250.            )

# E31

TEST_TABLE(       TABLE=T1,
                    FILTRE=_F(  NOM_PARA = 'NOEUD',
                             VALE_K = 'NO30055'),
                  NOM_PARA='VMIS',
                 PRECISION=0.019,
                      VALE=1150.            )

# E33

TEST_TABLE(       TABLE=T1,
                    FILTRE=_F(  NOM_PARA = 'NOEUD',
                             VALE_K = 'NO32055'),
                  NOM_PARA='VMIS',
                 PRECISION=0.105,
                      VALE=840.            )

FIN()
#
