# MODIF  DATE 29/09/2008   AUTEUR ABBAS M.ABBAS 
# RESPONSABLE JMBHH01 J.M.PROIX
# TITRE VERSION ALLEGEE DU YYYY106A SANS METIS NI INCLUDE_MATERIAU
#            CONFIGURATION MANAGEMENT OF EDF VERSION
# ======================================================================
# COPYRIGHT (C) 1991 - 2001  EDF R&D                  WWW.CODE-ASTER.ORG
# THIS PROGRAM IS FREE SOFTWARE; YOU CAN REDISTRIBUTE IT AND/OR MODIFY
# IT UNDER THE TERMS OF THE GNU GENERAL PUBLIC LICENSE AS PUBLISHED BY
# THE FREE SOFTWARE FOUNDATION; EITHER VERSION 2 OF THE LICENSE, OR
# (AT YOUR OPTION) ANY LATER VERSION.
#
# THIS PROGRAM IS DISTRIBUTED IN THE HOPE THAT IT WILL BE USEFUL, BUT
# WITHOUT ANY WARRANTY; WITHOUT EVEN THE IMPLIED WARRANTY OF
# MERCHANTABILITY OR FITNESS FOR A PARTICULAR PURPOSE. SEE THE GNU
# GENERAL PUBLIC LICENSE FOR MORE DETAILS.
#
# YOU SHOULD HAVE RECEIVED A COPY OF THE GNU GENERAL PUBLIC LICENSE
# ALONG WITH THIS PROGRAM; IF NOT, WRITE TO EDF R&D CODE_ASTER,
#    1 AVENUE DU GENERAL DE GAULLE, 92141 CLAMART CEDEX, FRANCE.
# ======================================================================
# MODIFICATION EN 6.0.32
# LE GROUPE MC4_PLA  EST COMPRIS ENTRE DEUX VOLUMES : E_JOI ET E_PLA
# MODI_MAILLAGE NE SAIT PAS TRAITER CE CAS
# ON CREE DONC UN MODELE SPECIAL SANS E_JOI POUR MODI_MAILLAGE
# CE TEST PREND 5000 SECONDES CPU EN 6.0.32

DEBUT(CODE=_F(NOM='YYYY106B',
              NIV_PUB_WEB='INTRANET',),);

MA=LIRE_MAILLAGE(UNITE=21,
                 FORMAT='MED',);

MOD=AFFE_MODELE(MAILLAGE=MA,
                INFO=1,
                AFFE=_F(TOUT='OUI',
                        PHENOMENE='THERMIQUE',
                        MODELISATION='3D',),);

THERDEP=LIRE_RESU(TYPE_RESU='EVOL_THER',
                  FORMAT='MED',
                  MAILLAGE=MA,
                  UNITE=21,
                  FORMAT_MED=_F(
                  NOM_CHAM='TEMP',
                  NOM_CHAM_MED='THERDEP_TEMP____________________',),
                  TOUT_ORDRE='OUI',);

PRE_IDEAS(UNITE_IDEAS=19,
          UNITE_MAILLAGE=20,);

MA1=LIRE_MAILLAGE(UNITE=20,
                  FORMAT='ASTER',
                  VERI_MAIL=_F(APLAT=1.E-3,),
                  INFO=1,);

MOD1=AFFE_MODELE(MAILLAGE=MA1,
                 INFO=1,
                 AFFE=_F(TOUT='OUI',
                         PHENOMENE='THERMIQUE',
                         MODELISATION='3D',),);

TEMP2=PROJ_CHAMP(METHODE='ELEM',
                 RESULTAT=THERDEP,
                 MODELE_1=MOD,
                 MODELE_2=MOD1,
                 TOUT_ORDRE='OUI',);

CARAMAIL=RECU_TABLE(CO=MA1,
                    NOM_TABLE='CARA_GEOM',);

IMPR_TABLE(TABLE=CARAMAIL,
           FORMAT='TABLEAU',
           UNITE=8,
           FORMAT_R='1PE12.5',);

MODMECA=AFFE_MODELE(MAILLAGE=MA1,
                    INFO=1,
                    AFFE=_F(TOUT='OUI',
                            PHENOMENE='MECANIQUE',
                            MODELISATION='3D',),);
# obligatoire pour le groupe mc4_pla
# puisque modi_maillage ne sait pas traiter
# il est compris entre deux volumes : e_joi et e_pla
# on cree donc un modele special sans e_joi pour modi_maillage

MODMODI=AFFE_MODELE(MAILLAGE=MA1,
                    AFFE=_F(GROUP_MA=('E_CHA','E_COR','E_ECR','E_GOU','E_PLA','E_RON','E_STE','M_INT','M_XMIN','MC11_COR',
                                       'MC11_PLA','MC12_COR','MC12_PLA','MC13_COR','MC13_PLA','MC2_COR','MC2_JOI',
                                       'MC31_CHA','MC31_PLA','MC32_CHA','MC32_PLA','MC33_CHA','MC33_PLA','MC4_JOI',
                                       'MC4_PLA',),
                            PHENOMENE='MECANIQUE',
                            MODELISATION='3D',),);

MA1=MODI_MAILLAGE(reuse =MA1,
                  MAILLAGE=MA1,
                  ORIE_PEAU_3D=(
                                _F(GROUP_MA='M_XMIN',),
                                _F(GROUP_MA='M_INT',),
                                ),
                  INFO=1,);

MA1=MODI_MAILLAGE(reuse =MA1,
                  MAILLAGE=MA1,
                  ORIE_PEAU_3D=(
                                _F(GROUP_MA='MC11_PLA',),
                                _F(GROUP_MA='MC11_COR',),
                                _F(GROUP_MA='MC12_PLA',),
                                _F(GROUP_MA='MC12_COR',),
                                _F(GROUP_MA='MC13_PLA',),
                                _F(GROUP_MA='MC13_COR',),
                                ),
                  ORIE_NORM_COQUE=(
                                _F(GROUP_MA='MC4_PLA',),
                      _F(GROUP_MA='MC2_COR',),
                  ),
                  INFO=1,);

NUF=DEFI_CONSTANTE(NOM_RESU='TOUTRESU',
                   VALE=0.3,);

EF_32=DEFI_FONCTION(NOM_PARA='TEMP',
                    NOM_RESU='TOUTRESU',
                    VALE=
                    (0.0,1.98500000000E11,20.0,1.97000000000E11,50.0,1.95000000000E11,100.0,
                           1.91500000000E11,150.0,1.87500000000E11,200.0,1.84000000000E11,),
                    INTERPOL='LIN',
                    PROL_DROITE='LINEAIRE',
                    PROL_GAUCHE='LINEAIRE',
                    INFO=1,);

ALF_32=DEFI_FONCTION(NOM_PARA='TEMP',
                     NOM_RESU='TOUTRESU',
                     VALE=(20.0,1.554E-05,50.0,1.572E-05,100.0,1.6E-05,150.0,1.63E-05,200.0,1.66E-05,),
                     INTERPOL='LIN',
                     PROL_DROITE='LINEAIRE',
                     PROL_GAUCHE='LINEAIRE',
                     INFO=1,);

ACIE_32=DEFI_MATERIAU(ELAS_FO=_F(E=EF_32,
                                 NU=NUF,
                                 TEMP_DEF_ALPHA=20.0,
                                 PRECISION=1.0,
                                 ALPHA=ALF_32,
                                 K_DESSIC=0.0,
                                 B_ENDOGE=0.0,),
                      INFO=1,);

EF_22=DEFI_FONCTION(NOM_PARA='TEMP',
                    NOM_RESU='TOUTRESU',
                    VALE=
                    (0.0,2.16500000000E11,20.0,2.15400000000E11,50.0,2.13000000000E11,100.0,
                           2.09400000000E11,150.0,2.06000000000E11,200.0,2.01800000000E11,),
                    INTERPOL='LIN',
                    PROL_DROITE='LINEAIRE',
                    PROL_GAUCHE='LINEAIRE',
                    INFO=1,);

ALF_22=DEFI_FONCTION(NOM_PARA='TEMP',
                     NOM_RESU='TOUTRESU',
                     VALE=(20.0,9.42E-06,50.0,9.6E-06,100.0,9.96E-06,150.0,1.02E-05,200.0,1.044E-05,),
                     INTERPOL='LIN',
                     PROL_DROITE='LINEAIRE',
                     PROL_GAUCHE='LINEAIRE',
                     INFO=1,);

ACIE_22=DEFI_MATERIAU(ELAS_FO=_F(E=EF_22,
                                 NU=NUF,
                                 TEMP_DEF_ALPHA=20.0,
                                 PRECISION=1.0,
                                 ALPHA=ALF_22,
                                 K_DESSIC=0.0,
                                 B_ENDOGE=0.0,),
                      INFO=1,);

EF_11=DEFI_FONCTION(NOM_PARA='TEMP',
                    VALE=
                    (0.0,2.05000000000E11,20.0,2.04000000000E11,50.0,2.03000000000E11,100.0,2.E11,150.0,
                           1.97000000000E11,200.0,1.93000000000E11,),
                    PROL_DROITE='LINEAIRE',
                    PROL_GAUCHE='LINEAIRE',);

ALF_11=DEFI_FONCTION(NOM_PARA='TEMP',
                     VALE=(20.0,1.092E-05,50.0,1.114E-05,100.0,1.15E-05,150.0,1.187E-05,200.0,1.224E-05,),
                     PROL_DROITE='LINEAIRE',
                     PROL_GAUCHE='LINEAIRE',);

ACIE_11=DEFI_MATERIAU(ELAS_FO=_F(E=EF_11,
                                 NU=NUF,
                                 TEMP_DEF_ALPHA=20.0,
                                 ALPHA=ALF_11,),);

GRAP=DEFI_MATERIAU(ELAS=_F(E=1.00E6,
                           NU=0.4,
                           ALPHA=0.0,),);



CHMLIA1=AFFE_CHAR_MECA(VERI_NORM='OUI',
                       MODELE=MODMECA,
                       DDL_IMPO=(_F(GROUP_NO='N_XMAX',
                                    DX=0.0,),
                                 _F(GROUP_NO='N_Z0',
                                    DZ=0.0,),
                                 _F(GROUP_NO='N_XMAX_M',
                                    DY=0.0,),),
                       LIAISON_UNIF=_F(GROUP_NO='N_XMIN',
                                       DDL='DX',),
                       INFO=1,);

CHMC1=AFFE_CHAR_MECA(VERI_NORM='OUI',
                     MODELE=MODMECA,
                     LIAISON_GROUP=(_F(GROUP_MA_1='MC31_PLA',
                                       GROUP_MA_2='MC31_CHA',
                                       DDL_1='DY',
                                       COEF_MULT_1=1.0,
                                       DDL_2='DY',
                                       COEF_MULT_2=-1.0,
                                       COEF_IMPO=0.0,),
                                    _F(GROUP_MA_1='MC32_PLA',
                                       GROUP_MA_2='MC32_CHA',
                                       DDL_1='DY',
                                       COEF_MULT_1=1.0,
                                       DDL_2='DY',
                                       COEF_MULT_2=-1.0,
                                       COEF_IMPO=0.0,),
                                    _F(GROUP_MA_1='MC33_PLA',
                                       GROUP_MA_2='MC33_CHA',
                                       DDL_1='DY',
                                       COEF_MULT_1=1.0,
                                       DDL_2='DY',
                                       COEF_MULT_2=-1.0,
                                       COEF_IMPO=0.0,),),
                     CONTACT=(_F(GROUP_MA_MAIT='MC11_PLA',
                                 GROUP_MA_ESCL='MC11_COR',
                                 TOLE_PROJ_EXT=0.1,
                                 REAC_GEOM='SANS',),
                              _F(GROUP_MA_MAIT='MC12_PLA',
                                 GROUP_MA_ESCL='MC12_COR',
                                 TOLE_PROJ_EXT=0.1,
                                 REAC_GEOM='SANS',),
                              _F(GROUP_MA_MAIT='MC13_PLA',
                                 GROUP_MA_ESCL='MC13_COR',
                                 TOLE_PROJ_EXT=0.1,
                                 REAC_GEOM='SANS',),),
                     INFO=1,);

CHMS1=AFFE_CHAR_MECA(VERI_NORM='OUI',
                     MODELE=MODMECA,
                     LIAISON_GROUP=(_F(GROUP_NO_1='NC5_GOU',
                                       GROUP_NO_2='NC5_ECR',
                                       DDL_1='DX',
                                       COEF_MULT_1=1.0,
                                       DDL_2='DX',
                                       COEF_MULT_2=-1.0,
                                       COEF_IMPO=0.0,),
                                    _F(GROUP_NO_1='NC5_GOU',
                                       GROUP_NO_2='NC5_ECR',
                                       DDL_1='DY',
                                       COEF_MULT_1=1.0,
                                       DDL_2='DY',
                                       COEF_MULT_2=-1.0,
                                       COEF_IMPO=7.E-05,),
                                    _F(GROUP_NO_1='NC5_GOU',
                                       GROUP_NO_2='NC5_ECR',
                                       DDL_1='DZ',
                                       COEF_MULT_1=1.0,
                                       DDL_2='DZ',
                                       COEF_MULT_2=-1.0,
                                       COEF_IMPO=0.0,),),
                     INFO=1,);

FONCS=DEFI_FONCTION(NOM_PARA='INST',
                    NOM_RESU='TOUTRESU',
                    VALE=(-2.0,0.0,-1.0,1.0,9000.0,1.0,),
                    INTERPOL='LIN',
                    PROL_DROITE='EXCLU',
                    PROL_GAUCHE='EXCLU',
                    INFO=1,);

T20=CREA_CHAMP(TYPE_CHAM='NOEU_TEMP_R',
               OPERATION='AFFE',
               MAILLAGE=MA1,
               AFFE=_F(
               TOUT='OUI',
               NOM_CMP='TEMP',
               VALE=20.0,),
               INFO=1,);

T286=CREA_CHAMP(TYPE_CHAM='NOEU_TEMP_R',
                OPERATION='AFFE',
                MAILLAGE=MA1,
                AFFE=_F(
                TOUT='OUI',
                NOM_CMP='TEMP',
                VALE=286.0,),
                INFO=1,);

THERCST=CREA_RESU(OPERATION='AFFE',
                  TYPE_RESU='EVOL_THER',
                  NOM_CHAM='TEMP',
                  AFFE=(
                  _F(CHAM_GD=T20,
                     INST=-2.0,),
                  _F(CHAM_GD=T20,
                     INST=-1.0,),
                  _F(CHAM_GD=T20,
                     INST=0.0,),
                  _F(CHAM_GD=T286,
                     INST=1.0,),
                  _F(CHAM_GD=T286,
                     INST=2.0,),),);


LR3=DEFI_LIST_REEL(DEBUT=-2.0,
                   INTERVALLE=(_F(JUSQU_A=-1.0,
                                  NOMBRE=1,),
                               _F(JUSQU_A=0.0,
                                  NOMBRE=1,),
                               _F(JUSQU_A=1.0,
                                  NOMBRE=1,),
                               _F(JUSQU_A=180.0,
                                  NOMBRE=1,),),
                   INFO=1,);

CHMP1=AFFE_CHAR_MECA(VERI_NORM='NON',
                     MODELE=MODMECA,
                     PRES_REP=(_F(GROUP_MA='M_INT',
                                  PRES=1.6000000E7,),
                               _F(GROUP_MA='MC11_COR',
                                  PRES=1.6000000E7,),
                               _F(GROUP_MA='MC11_PLA',
                                  PRES=1.6000000E7,),
                               _F(GROUP_MA='M_XMIN',
                                  PRES=-1.0250000E7,),
                               _F(GROUP_MA='MC2_COR',
                                  PRES=1.6000000E7,),
                               _F(GROUP_MA='MC4_PLA',
                                  PRES=1.6000000E7,),),);

FONCP=DEFI_FONCTION(NOM_PARA='INST',
                    VALE=(-2.0,0.0,-1.0,0.0,0.0,1.0,9000.0,1.0,),);

#CHT286=AFFE_CHAR_MECA(VERI_NORM='OUI', MODELE=MODMECA, TEMP_CALCULEE=THERCST, );
CHMAT=AFFE_MATERIAU(MAILLAGE=MA1,
                    AFFE=(_F(GROUP_MA=('E_COR','E_PLA',), MATER=ACIE_32),
                          _F(GROUP_MA='E_GOU',            MATER=ACIE_22),
                          _F(GROUP_MA=('E_ECR','E_RON',), MATER=ACIE_22),
                          _F(GROUP_MA='E_CHA',            MATER=ACIE_11),
                          _F(GROUP_MA='E_STE',            MATER=ACIE_32),
                          _F(GROUP_MA='E_JOI',            MATER=GRAP),
                          ),
                     AFFE_VARC=_F(TOUT='OUI', NOM_VARC='TEMP',EVOL=THERCST,PROL_DROITE='CONSTANT',VALE_REF=20.,),)

DEP=STAT_NON_LINE(SOLVEUR=_F(SYME='OUI',),
                  MODELE=MODMECA,
                  CHAM_MATER=CHMAT,
                  EXCIT=(_F(CHARGE=CHMLIA1,
                            TYPE_CHARGE='FIXE_CSTE',),
                         _F(CHARGE=CHMC1,
                            TYPE_CHARGE='FIXE_CSTE',),
                         _F(CHARGE=CHMS1,
                            FONC_MULT=FONCS,
                            TYPE_CHARGE='FIXE_CSTE',),
                         #_F(CHARGE=CHT286, TYPE_CHARGE='FIXE_CSTE',),
                         _F(CHARGE=CHMP1,
                            FONC_MULT=FONCP,
                            TYPE_CHARGE='FIXE_CSTE',),),
                  COMP_INCR=_F(RELATION='ELAS',
                               DEFORMATION='PETIT',
                               GROUP_MA=('E_COR','E_CHA','E_PLA','E_ECR','E_GOU','E_JOI','E_RON','E_STE',),),
                  INCREMENT=_F(LIST_INST=LR3,
                               INST_FIN=1.0,
                               PRECISION=1.E-3,),
                  NEWTON=_F(REAC_INCR=1,
                            MATRICE='TANGENTE',
                            REAC_ITER=1,),);

CHMAT2=AFFE_MATERIAU(MAILLAGE=MA1,
                    AFFE=(_F(GROUP_MA=('E_COR','E_PLA',),
                             MATER=ACIE_32,),
                          _F(GROUP_MA='E_GOU',
                             MATER=ACIE_22,),
                          _F(GROUP_MA=('E_ECR','E_RON',),
                             MATER=ACIE_22,
                             ),
                          _F(GROUP_MA='E_CHA',
                             MATER=ACIE_11,),
                          _F(GROUP_MA='E_STE',
                             MATER=ACIE_32,),
                          _F(GROUP_MA='E_JOI',
                             MATER=GRAP,),),
                    AFFE_VARC=_F(TOUT='OUI', EVOL=TEMP2,PROL_GAUCHE='CONSTANT',
                             NOM_VARC='TEMP',VALE_REF=20., NOM_CHAM='TEMP'),);

DEP=STAT_NON_LINE(reuse =DEP,
                  MODELE=MODMECA,
                  CHAM_MATER=CHMAT2,
                  EXCIT=(_F(CHARGE=CHMLIA1,
                            TYPE_CHARGE='FIXE_CSTE',),
                         _F(CHARGE=CHMC1,
                            TYPE_CHARGE='FIXE_CSTE',),
                         _F(CHARGE=CHMS1,
                            FONC_MULT=FONCS,
                            TYPE_CHARGE='FIXE_CSTE',),
                         _F(CHARGE=CHMP1,
                            FONC_MULT=FONCP,
                            TYPE_CHARGE='FIXE_CSTE',),),
                  COMP_INCR=_F(RELATION='ELAS',
                               DEFORMATION='PETIT',
                               GROUP_MA=('E_COR','E_CHA','E_PLA','E_ECR','E_GOU','E_JOI','E_RON','E_STE',),),
                  ETAT_INIT=_F(
                  EVOL_NOLI=DEP,
                  PRECISION=1.E-3,
                  CRITERE='RELATIF',),
                  INCREMENT=_F(LIST_INST=LR3,
                               INST_FIN=180.0,
                               PRECISION=1.E-3,),
                  NEWTON=_F(REAC_INCR=1,
                            MATRICE='TANGENTE',
                            REAC_ITER=1,),
                  SOLVEUR=_F(SYME='OUI',
                             METHODE='MULT_FRONT',
                             RENUM='METIS',),
                  INFO=2,);

DEP=CALC_ELEM(reuse =DEP,
              MODELE=MODMECA,
              CHAM_MATER=CHMAT,
              RESULTAT=DEP,
              PRECISION=1.E-3,
              CRITERE='RELATIF',
              GROUP_MA='E_GOU',
              OPTION='SIEF_ELNO_ELGA',
              NORME='VMIS',
              REPE_COQUE =_F( NUME_COUCHE=1,
                              NIVE_COUCHE='MOY',
                              ANGLE=0,),
              EXCIT=(_F(CHARGE=CHMLIA1,
                        TYPE_CHARGE='FIXE',),
                     _F(CHARGE=CHMC1,
                        TYPE_CHARGE='FIXE',),
                     _F(CHARGE=CHMS1,
                        TYPE_CHARGE='FIXE',),
                     _F(CHARGE=CHMP1,
                        TYPE_CHARGE='FIXE',),),);

SIG0=POST_RELEVE_T(ACTION=_F(INTITULE='CONTRAINTE SYY DANS LE GOUJON 0',
                             NOEUD='N5495',
                             FORMAT_C='MODULE',
                             RESULTAT=DEP,
                             NOM_CHAM='SIEF_ELNO_ELGA',
                             TOUT_ORDRE='OUI',
                             PRECISION=1.E-06,
                             CRITERE='RELATIF',
                             NOM_CMP='SIYY',
                             REPERE='GLOBAL',
                             MOYE_NOEUD='OUI',
                             OPERATION='EXTRACTION',),
                   INFO=1,);

SIG1=POST_RELEVE_T(ACTION=_F(INTITULE='CONTRAINTE SYY DANS LE GOUJON 1',
                             NOEUD='N5642',
                             FORMAT_C='MODULE',
                             RESULTAT=DEP,
                             NOM_CHAM='SIEF_ELNO_ELGA',
                             TOUT_ORDRE='OUI',
                             PRECISION=1.E-06,
                             CRITERE='RELATIF',
                             NOM_CMP='SIYY',
                             REPERE='GLOBAL',
                             MOYE_NOEUD='OUI',
                             OPERATION='EXTRACTION',),
                   INFO=1,);

SIG2=POST_RELEVE_T(ACTION=_F(INTITULE='CONTRAINTE SYY DANS LE GOUJON 2',
                             NOEUD='N5789',
                             FORMAT_C='MODULE',
                             RESULTAT=DEP,
                             NOM_CHAM='SIEF_ELNO_ELGA',
                             TOUT_ORDRE='OUI',
                             PRECISION=1.E-06,
                             CRITERE='RELATIF',
                             NOM_CMP='SIYY',
                             REPERE='GLOBAL',
                             MOYE_NOEUD='OUI',
                             OPERATION='EXTRACTION',),
                   INFO=1,);

SIG3=POST_RELEVE_T(ACTION=_F(INTITULE='CONTRAINTE SYY DANS LE GOUJON 3',
                             NOEUD='N5936',
                             FORMAT_C='MODULE',
                             RESULTAT=DEP,
                             NOM_CHAM='SIEF_ELNO_ELGA',
                             TOUT_ORDRE='OUI',
                             PRECISION=1.E-06,
                             CRITERE='RELATIF',
                             NOM_CMP='SIYY',
                             REPERE='GLOBAL',
                             MOYE_NOEUD='OUI',
                             OPERATION='EXTRACTION',),
                   INFO=1,);

DEP_11C=POST_RELEVE_T(ACTION=_F(INTITULE='DEPLACEMENT A 180S BORD INTERNE DU CORPS',
                                GROUP_NO='NC11_COR',
                                FORMAT_C='MODULE',
                                RESULTAT=DEP,
                                NOM_CHAM='DEPL',
                                INST=180.0,
                                PRECISION=1.E-06,
                                CRITERE='RELATIF',
                                NOM_CMP='DY',
                                REPERE='GLOBAL',
                                MOYE_NOEUD='OUI',
                                OPERATION='EXTRACTION',),
                      INFO=1,);

DEP_11P=POST_RELEVE_T(ACTION=_F(INTITULE='DEPLACEMENT A 180S BORD INTERNE PLAQUE',
                                GROUP_NO='NC11_PLA',
                                FORMAT_C='MODULE',
                                RESULTAT=DEP,
                                NOM_CHAM='DEPL',
                                INST=180.0,
                                PRECISION=1.E-06,
                                CRITERE='RELATIF',
                                NOM_CMP='DY',
                                REPERE='GLOBAL',
                                MOYE_NOEUD='OUI',
                                OPERATION='EXTRACTION',),
                      INFO=1,);

DEP_12C=POST_RELEVE_T(ACTION=_F(INTITULE='DEPLACEMENT A 180S BORD EXTERNE DU CORPS',
                                GROUP_NO='NC12_COR',
                                FORMAT_C='MODULE',
                                RESULTAT=DEP,
                                NOM_CHAM='DEPL',
                                INST=180.0,
                                PRECISION=1.E-06,
                                CRITERE='RELATIF',
                                NOM_CMP='DY',
                                REPERE='GLOBAL',
                                MOYE_NOEUD='OUI',
                                OPERATION='EXTRACTION',),
                      INFO=1,);

DEP_12P=POST_RELEVE_T(ACTION=_F(INTITULE='DEPLACEMENT A 180S BORD EXTERNE PLAQUE',
                                GROUP_NO='NC12_PLA',
                                FORMAT_C='MODULE',
                                RESULTAT=DEP,
                                NOM_CHAM='DEPL',
                                INST=180.0,
                                PRECISION=1.E-06,
                                CRITERE='RELATIF',
                                NOM_CMP='DY',
                                REPERE='GLOBAL',
                                MOYE_NOEUD='OUI',
                                OPERATION='EXTRACTION',),
                      INFO=1,);

TEST_TABLE(TABLE=SIG0,
           FILTRE=_F(NOM_PARA='INST',
                     VALE=180.0,),
           NOM_PARA='SIYY',
           VALE=113875344.302,
           REFERENCE='NON_REGRESSION',
           VERSION='6.0.32',);

TEST_TABLE(TABLE=SIG1,
           FILTRE=_F(NOM_PARA='INST',
                     VALE=180.0,),
           NOM_PARA='SIYY',
           VALE=99478995.703,
           REFERENCE='NON_REGRESSION',
           VERSION='6.0.32',);

TEST_TABLE(TABLE=SIG2,
           FILTRE=_F(NOM_PARA='INST',
                     VALE=180.0,),
           NOM_PARA='SIYY',
           VALE=91356882.5200,
           REFERENCE='NON_REGRESSION',
           VERSION='6.0.32',);

TEST_TABLE(TABLE=SIG3,
           FILTRE=_F(NOM_PARA='INST',
                     VALE=180.0,),
           NOM_PARA='SIYY',
           VALE=96290627.902326,
           REFERENCE='NON_REGRESSION',
           VERSION='6.0.32',);

TEST_TABLE(TABLE=DEP_11C,
           FILTRE=_F(NOM_PARA='NOEUD',
                     VALE_K='N10172',),
           NOM_PARA='DY',
           VALE=0.000581427266128,
           REFERENCE='NON_REGRESSION',
           VERSION='6.0.32',);

TEST_TABLE(TABLE=DEP_11P,
           FILTRE=_F(NOM_PARA='NOEUD',
                     VALE_K='N6388',),
           NOM_PARA='DY',
           VALE=0.00065869844430431,
           REFERENCE='NON_REGRESSION',
           VERSION='6.0.32',);

TEST_TABLE(TABLE=DEP_12C,
           FILTRE=_F(NOM_PARA='NOEUD',
                     VALE_K='N10179',),
           NOM_PARA='DY',
           VALE=0.00064271592696,
           REFERENCE='NON_REGRESSION',
           VERSION='6.0.32',);

TEST_TABLE(TABLE=DEP_12P,
           FILTRE=_F(NOM_PARA='NOEUD',
                     VALE_K='N6395',),
           NOM_PARA='DY',
           VALE=0.00064788712585499,
           REFERENCE='NON_REGRESSION',
           VERSION='6.0.32',);

TAB11C=POST_RELEVE_T(ACTION=_F(INTITULE='NC11_COR',
                               GROUP_NO='NC11_COR',
                               RESULTAT=DEP,
                               NOM_CHAM='VALE_CONT',
                               INST=180.,
                               TOUT_CMP='OUI',
                               OPERATION='EXTRACTION',),);

IMPR_TABLE(TABLE=TAB11C,);

TAB12C=POST_RELEVE_T(ACTION=_F(INTITULE='NC12_COR',
                               GROUP_NO='NC12_COR',
                               RESULTAT=DEP,
                               NOM_CHAM='VALE_CONT',
                               INST=180.,
                               TOUT_CMP='OUI',
                               OPERATION='EXTRACTION',),);

IMPR_TABLE(TABLE=TAB12C,);

JEU11=RECU_FONCTION(TABLE=TAB11C,
                    PARA_X='COOR_X',
                    PARA_Y='JEU',);

JEU12=RECU_FONCTION(TABLE=TAB12C,
                    PARA_X='COOR_X',
                    PARA_Y='JEU',);

FIN();
