# ======================================================================
# COPYRIGHT (C) 1991 - 2016  EDF R&D                  WWW.CODE-ASTER.ORG
# THIS PROGRAM IS FREE SOFTWARE; YOU CAN REDISTRIBUTE IT AND/OR MODIFY
# IT UNDER THE TERMS OF THE GNU GENERAL PUBLIC LICENSE AS PUBLISHED BY
# THE FREE SOFTWARE FOUNDATION; EITHER VERSION 2 OF THE LICENSE, OR
# (AT YOUR OPTION) ANY LATER VERSION.
#
# THIS PROGRAM IS DISTRIBUTED IN THE HOPE THAT IT WILL BE USEFUL, BUT
# WITHOUT ANY WARRANTY; WITHOUT EVEN THE IMPLIED WARRANTY OF
# MERCHANTABILITY OR FITNESS FOR A PARTICULAR PURPOSE. SEE THE GNU
# GENERAL PUBLIC LICENSE FOR MORE DETAILS.
#
# YOU SHOULD HAVE RECEIVED A COPY OF THE GNU GENERAL PUBLIC LICENSE
# ALONG WITH THIS PROGRAM; IF NOT, WRITE TO EDF R&D CODE_ASTER,
#    1 AVENUE DU GENERAL DE GAULLE, 92141 CLAMART CEDEX, FRANCE.
# ======================================================================

DEBUT(CODE=_F(NIV_PUB_WEB='INTERNET'),DEBUG=_F(SDVERI='OUI'))

# lecture maillage lineique
MAPOU=LIRE_MAILLAGE(UNITE=20,);

MOPOU=AFFE_MODELE(MAILLAGE=MAPOU,
                  AFFE=_F(TOUT='OUI', PHENOMENE='MECANIQUE', MODELISATION='TUYAU_3M',),);

BETON=DEFI_MATERIAU(ELAS=_F(E=3.7272000000E10, NU=0.0,  RHO=2400.0,),)

POUCA_0=AFFE_CARA_ELEM( MODELE=MOPOU,
                        INFO=1,
                        POUTRE=_F(  GROUP_MA=('POUTRE'),
                                    SECTION='CERCLE',
                                    CARA=('R','EP'),
                                    VALE=(10.,1.),
                                    TUYAU_NSEC = 4,
                                    TUYAU_NCOU = 2,
                                    ),
                        );
CHMAT=AFFE_MATERIAU(MAILLAGE=MAPOU,
                    AFFE=_F(GROUP_MA='POUTRE', MATER=BETON,),
                          );

BLOCAGE=AFFE_CHAR_MECA( MODELE=MOPOU,
                        DDL_IMPO=(_F(GROUP_NO='ENC', DX=0.0, DY=0.0, DZ=0.0, DRX=0.0, DRY=0.0, DRZ=0.0,),
                                 ),);
CHARGE=AFFE_CHAR_MECA(  MODELE=MOPOU,
                        FORCE_NODALE=(_F(GROUP_NO='CHA',FX = 100,FY = 100,FZ = -100.)
                                 ),);

FOFO=DEFI_FONCTION(NOM_PARA='INST',
                   VALE=(0.0,0.0,3.5,3.5),
                   PROL_DROITE='EXCLU',
                   PROL_GAUCHE='EXCLU',);


LINST=DEFI_LIST_REEL(   DEBUT=0.0,
                        INTERVALLE=(_F(JUSQU_A=0.1,  NOMBRE=2,),
                                    _F(JUSQU_A=1.4,  NOMBRE=10,),
                                    _F(JUSQU_A=2.84 ,  NOMBRE=9,),
                                    _F(JUSQU_A=3. ,  NOMBRE=10,),
                                    ),
                    );

U_0=STAT_NON_LINE(MODELE=MOPOU,
                 CHAM_MATER=CHMAT,
                 CARA_ELEM=POUCA_0,
                 EXCIT=(_F(CHARGE=BLOCAGE,),
                        _F(CHARGE=CHARGE,
                           FONC_MULT=FOFO,),),
                 COMPORTEMENT=(_F(RELATION='ELAS'),),
                 INCREMENT=_F(LIST_INST=LINST,),
                 NEWTON=_F(MATRICE='TANGENTE',REAC_ITER=1),
                 CONVERGENCE=_F(RESI_GLOB_RELA=3.E-5,
                                ITER_GLOB_MAXI=250,),
                 );


U_0=CALC_CHAMP(DEFORMATION=('EPSI_ELGA'),reuse=U_0,RESULTAT=U_0)

IMPR_RESU(FORMAT='MED',
          RESU=_F(RESULTAT=U_0,
                  CARA_ELEM=POUCA_0,),);

TB_0=CREA_TABLE(RESU=_F(RESULTAT=U_0,GROUP_MA='POUTRE',NOM_CHAM='EPSI_ELGA',TOUT_CMP='OUI',NUME_ORDRE = 1))
IMPR_TABLE(TABLE=TB_0)


TEST_TABLE(REFERENCE='ANALYTIQUE',
           VALE_CALC=-3.448831283,
           VALE_REFE=-3.4488316139999999,
           NOM_PARA='COOR_X',
           TABLE=TB_0,
           FILTRE=(_F(NOM_PARA='POINT',
                      VALE_I=1,),
                   _F(NOM_PARA='SOUS_POINT',
                      VALE_I=1,),
                   ),
           )

TEST_TABLE(REFERENCE='ANALYTIQUE',
           VALE_CALC=-3.448831283,
           VALE_REFE=-3.4488316139999999,
           NOM_PARA='COOR_Y',
           TABLE=TB_0,
           FILTRE=(_F(NOM_PARA='POINT',
                      VALE_I=1,),
                   _F(NOM_PARA='SOUS_POINT',
                      VALE_I=1,),
                   ),
           )

TEST_TABLE(REFERENCE='ANALYTIQUE',
           VALE_CALC=7.573872559,
           VALE_REFE=7.5738722279999999,
           NOM_PARA='COOR_Z',
           TABLE=TB_0,
           FILTRE=(_F(NOM_PARA='POINT',
                      VALE_I=1,),
                   _F(NOM_PARA='SOUS_POINT',
                      VALE_I=1,),
                   ),
           )

TEST_TABLE(REFERENCE='ANALYTIQUE',
           VALE_CALC=-6.872672881,
           VALE_REFE=-6.8726732110000004,
           NOM_PARA='COOR_X',
           TABLE=TB_0,
           FILTRE=(_F(NOM_PARA='POINT',
                      VALE_I=1,),
                   _F(NOM_PARA='SOUS_POINT',
                      VALE_I=2,),
                   ),
           )

TEST_TABLE(REFERENCE='ANALYTIQUE',
           VALE_CALC=2.127327119,
           VALE_REFE=2.1273267890000001,
           NOM_PARA='COOR_Y',
           TABLE=TB_0,
           FILTRE=(_F(NOM_PARA='POINT',
                      VALE_I=1,),
                   _F(NOM_PARA='SOUS_POINT',
                      VALE_I=2,),
                   ),
           )

TEST_TABLE(REFERENCE='ANALYTIQUE',
           VALE_CALC=5.421555753,
           VALE_REFE=5.421555423,
           NOM_PARA='COOR_Z',
           TABLE=TB_0,
           FILTRE=(_F(NOM_PARA='POINT',
                      VALE_I=1,),
                   _F(NOM_PARA='SOUS_POINT',
                      VALE_I=2,),
                   ),
           )

TEST_TABLE(REFERENCE='ANALYTIQUE',
           VALE_CALC=-6.138557700,
           VALE_REFE=-6.1385580309999996,
           NOM_PARA='COOR_X',
           TABLE=TB_0,
           FILTRE=(_F(NOM_PARA='POINT',
                      VALE_I=1,),
                   _F(NOM_PARA='SOUS_POINT',
                      VALE_I=3,),
                   ),
           )

TEST_TABLE(REFERENCE='ANALYTIQUE',
           VALE_CALC=6.589364361,
           VALE_REFE=6.5893640309999997,
           NOM_PARA='COOR_Y',
           TABLE=TB_0,
           FILTRE=(_F(NOM_PARA='POINT',
                      VALE_I=1,),
                   _F(NOM_PARA='SOUS_POINT',
                      VALE_I=3,),
                   ),
           )

TEST_TABLE(REFERENCE='ANALYTIQUE',
           VALE_CALC=0.225403331,
           VALE_REFE=0.22540299999999999,
           NOM_PARA='COOR_Z',
           TABLE=TB_0,
           FILTRE=(_F(NOM_PARA='POINT',
                      VALE_I=1,),
                   _F(NOM_PARA='SOUS_POINT',
                      VALE_I=3,),
                   ),
           )

TEST_TABLE(REFERENCE='ANALYTIQUE',
           VALE_CALC=-3.652955429,
           VALE_REFE=-3.6529557590000001,
           NOM_PARA='COOR_X',
           TABLE=TB_0,
           FILTRE=(_F(NOM_PARA='POINT',
                      VALE_I=1,),
                   _F(NOM_PARA='SOUS_POINT',
                      VALE_I=19,),
                   ),
           )

TEST_TABLE(REFERENCE='ANALYTIQUE',
           VALE_CALC=-3.652955429,
           VALE_REFE=-3.6529557590000001,
           NOM_PARA='COOR_Y',
           TABLE=TB_0,
           FILTRE=(_F(NOM_PARA='POINT',
                      VALE_I=1,),
                   _F(NOM_PARA='SOUS_POINT',
                      VALE_I=19,),
                   ),
           )

TEST_TABLE(REFERENCE='ANALYTIQUE',
           VALE_CALC=7.982120850,
           VALE_REFE=7.9821205190000004,
           NOM_PARA='COOR_Z',
           TABLE=TB_0,
           FILTRE=(_F(NOM_PARA='POINT',
                      VALE_I=1,),
                   _F(NOM_PARA='SOUS_POINT',
                      VALE_I=19,),
                   ),
           )

TEST_TABLE(REFERENCE='ANALYTIQUE',
           VALE_CALC=-6.492111091,
           VALE_REFE=-6.4921114209999997,
           NOM_PARA='COOR_X',
           TABLE=TB_0,
           FILTRE=(_F(NOM_PARA='POINT',
                      VALE_I=1,),
                   _F(NOM_PARA='SOUS_POINT',
                      VALE_I=21,),
                   ),
           )

TEST_TABLE(REFERENCE='ANALYTIQUE',
           VALE_CALC=6.942917752,
           VALE_REFE=6.9429174209999998,
           NOM_PARA='COOR_Y',
           TABLE=TB_0,
           FILTRE=(_F(NOM_PARA='POINT',
                      VALE_I=1,),
                   _F(NOM_PARA='SOUS_POINT',
                      VALE_I=21,),
                   ),
           )

TEST_TABLE(REFERENCE='ANALYTIQUE',
           VALE_CALC=0.225403331,
           VALE_REFE=0.22540299999999999,
           NOM_PARA='COOR_Z',
           TABLE=TB_0,
           FILTRE=(_F(NOM_PARA='POINT',
                      VALE_I=1,),
                   _F(NOM_PARA='SOUS_POINT',
                      VALE_I=21,),
                   ),
           )

FIN()
