# TITRE TEST DE LA COMMANDE EXEC_LOGICIEL STANDARD ET GENERATION DE MAILLAGE
# ======================================================================
# COPYRIGHT (C) 1991 - 2015  EDF R&D                  WWW.CODE-ASTER.ORG
# THIS PROGRAM IS FREE SOFTWARE; YOU CAN REDISTRIBUTE IT AND/OR MODIFY
# IT UNDER THE TERMS OF THE GNU GENERAL PUBLIC LICENSE AS PUBLISHED BY
# THE FREE SOFTWARE FOUNDATION; EITHER VERSION 2 OF THE LICENSE, OR
# (AT YOUR OPTION) ANY LATER VERSION.
#
# THIS PROGRAM IS DISTRIBUTED IN THE HOPE THAT IT WILL BE USEFUL, BUT
# WITHOUT ANY WARRANTY; WITHOUT EVEN THE IMPLIED WARRANTY OF
# MERCHANTABILITY OR FITNESS FOR A PARTICULAR PURPOSE. SEE THE GNU
# GENERAL PUBLIC LICENSE FOR MORE DETAILS.
#
# YOU SHOULD HAVE RECEIVED A COPY OF THE GNU GENERAL PUBLIC LICENSE
# ALONG WITH THIS PROGRAM; IF NOT, WRITE TO EDF R&D CODE_ASTER,
#    1 AVENUE DU GENERAL DE GAULLE, 92141 CLAMART CEDEX, FRANCE.
# ======================================================================
#
# Attention les différents logiciels appelés doivent être accessibles
# depuis le répertoire "outils"
#
# Les TOLE_MACHINE sont là car entre les différentes versions des mailleurs
# (Gmsh 2.5/2.8) les résultats sont très différents !
# On n'a pas pour objectif de tester la non régression des mailleurs donc
# on prend une marge confortable.
# aslint: disable=W2005

DEBUT(CODE=_F(NIV_PUB_WEB='INTERNET'),
      DEBUG=_F(SDVERI='OUI'),
      IMPR_MACRO='NON',)

EXEC_LOGICIEL(LOGICIEL='ls -la', SHELL='OUI')

EXEC_LOGICIEL(LOGICIEL='pwd', SHELL='NON')

magmsh = EXEC_LOGICIEL(MAILLAGE=_F(FORMAT='GMSH',
                                   UNITE_GEOM=16,),
                       INFO=1)

# pour éviter la variabilité aux différentes versions du mailleur,
# on impose simplement un minimum de mailles/noeuds produits
TEST_RESU(MAILLAGE=(
    _F(MAILLAGE=magmsh,
       CARA='NB_MAILLE',
       REFERENCE='ANALYTIQUE',
       CRITERE='ABSOLU',
       VALE_REFE_I=458,     # entre 458 (2.5) et 605 (2.8) mailles
       PRECISION=200,
       VALE_CALC_I=458,
       TOLE_MACHINE=200,
      ),
    _F(MAILLAGE=magmsh,
       CARA='NB_NOEUD',
       REFERENCE='ANALYTIQUE',
       CRITERE='ABSOLU',
       VALE_REFE_I=96,     # entre 96 (2.5) et 130 (2.8) noeuds
       PRECISION=50,
       VALE_CALC_I=96,
       TOLE_MACHINE=50,
      ),
))

masalom = EXEC_LOGICIEL(MAILLAGE=_F(FORMAT='SALOME',
                                    UNITE_GEOM=17,),
                        ARGUMENT='plaque.med',
                        INFO=1)

# marge de 10 %
TEST_RESU(MAILLAGE=(
    _F(MAILLAGE=masalom,
       CARA='NB_MAILLE',
       REFERENCE='ANALYTIQUE',
       VALE_REFE_I=1508,
       PRECISION=0.10,
       VALE_CALC_I=1508,
       TOLE_MACHINE=0.10,
      ),
    _F(MAILLAGE=masalom,
       CARA='NB_NOEUD',
       REFERENCE='ANALYTIQUE',
       VALE_REFE_I=2917,
       PRECISION=0.10,
       VALE_CALC_I=2917,
       TOLE_MACHINE=0.10,
      ),
))

magibi = EXEC_LOGICIEL(MAILLAGE=_F(FORMAT='GIBI',
                                   UNITE_GEOM=14,),
                       INFO=1)

# Gibi ne bougeant plus, on peut ne pas prendre de marge!
TEST_RESU(MAILLAGE=(
    _F(MAILLAGE=magibi,
       CARA='NB_MAILLE',
       REFERENCE='ANALYTIQUE',
       VALE_REFE_I=14,
       VALE_CALC_I=14,
      ),
    _F(MAILLAGE=magibi,
       CARA='NB_NOEUD',
       REFERENCE='ANALYTIQUE',
       VALE_REFE_I=27,
       VALE_CALC_I=27,
      ),
))

FIN()
