# TITRE  VALIDATION DE LA PRISE EN COMPTE DES VARIABLES DE COMMANDE AUX SOUS-POINTS
# ======================================================================
# COPYRIGHT (C) 1991 - 2015  EDF R&D                  WWW.CODE-ASTER.ORG
# THIS PROGRAM IS FREE SOFTWARE; YOU CAN REDISTRIBUTE IT AND/OR MODIFY
# IT UNDER THE TERMS OF THE GNU GENERAL PUBLIC LICENSE AS PUBLISHED BY
# THE FREE SOFTWARE FOUNDATION; EITHER VERSION 2 OF THE LICENSE, OR
# (AT YOUR OPTION) ANY LATER VERSION.
#
# THIS PROGRAM IS DISTRIBUTED IN THE HOPE THAT IT WILL BE USEFUL, BUT
# WITHOUT ANY WARRANTY; WITHOUT EVEN THE IMPLIED WARRANTY OF
# MERCHANTABILITY OR FITNESS FOR A PARTICULAR PURPOSE. SEE THE GNU
# GENERAL PUBLIC LICENSE FOR MORE DETAILS.
#
# YOU SHOULD HAVE RECEIVED A COPY OF THE GNU GENERAL PUBLIC LICENSE
# ALONG WITH THIS PROGRAM; IF NOT, WRITE TO EDF R&D CODE_ASTER,
#    1 AVENUE DU GENERAL DE GAULLE, 92141 CLAMART CEDEX, FRANCE.
# ======================================================================

DEBUT(CODE=_F(NIV_PUB_WEB='INTERNET'),DEBUG=_F(SDVERI='OUI',),)

# ON TESTE LA METHODE SOUS_POINT DE PROJ_CHAMP POUR DES ELEMENTS DKT ET GRILLE
# LA TEMPERATURE D'UN CALCUL THERMIQUE 3D LINEAIRE STATIONNAIRE EST PROJETEE POUR UN CALCUL MECANIQUE
# LA SOLUTION DE REFERENCE EST UN AUTRE CALCUL ASTER OU LA EMPERATURE ETAIT DONNEE AVEC PREP_VRC1

import math

LINST =  DEFI_LIST_REEL(VALE=(0.,1.))


# Thermique 3D
MATH=LIRE_MAILLAGE(UNITE=19)
MOTH=AFFE_MODELE(MAILLAGE=MATH,
                 AFFE=_F(TOUT='OUI',PHENOMENE='THERMIQUE',MODELISATION='3D_DIAG'))
RHO_CP = 0.
LAMBDA = 2.0
BETON_TH = DEFI_MATERIAU(THER=_F(LAMBDA = LAMBDA,RHO_CP = RHO_CP))
MAT_TH = AFFE_MATERIAU(MAILLAGE = MATH,
                    AFFE =_F(GROUP_MA = 'POU3D' , MATER = BETON_TH,))


TIMP = AFFE_CHAR_THER(MODELE = MOTH,
                            TEMP_IMPO =( _F(GROUP_MA =('SINF'), TEMP = 50.),
                                                       _F(GROUP_MA =('SSUP'), TEMP = 20.),
                                                         ))
RESUTH = THER_LINEAIRE(MODELE=MOTH,
                     CHAM_MATER = MAT_TH,
                     EXCIT      = _F(CHARGE=TIMP),
                     ETAT_INIT=_F(VALE = 20.),
                     INCREMENT=_F(LIST_INST = LINST,),
                                  )

# Mecanique dalle
MA0=LIRE_MAILLAGE()
MA0=MODI_MAILLAGE(reuse=MA0,
                  MAILLAGE=MA0,
                                ORIE_NORM_COQUE=_F(GROUP_MA='SDAL',VECT_NORM=(0., 0., 1.),GROUP_NO='C1'))
MA1=CREA_MAILLAGE(MAILLAGE=MA0,
                  CREA_MAILLE=_F(NOM='ARMA',GROUP_MA='SDAL',PREF_MAILLE='A'))
IMPR_RESU(RESU=_F(MAILLAGE=MA1))
MO1=AFFE_MODELE(MAILLAGE=MA1,
                AFFE=(_F(GROUP_MA='SDAL',PHENOMENE='MECANIQUE',MODELISATION='DKT'),
                                    _F(GROUP_MA='ARMA',PHENOMENE='MECANIQUE',MODELISATION='GRILLE_EXCENTRE')
                              ))
# epaisseur dalle = 10 cm
epai=0.1
# phi 8, esp = 20 cm, enrobage = 2.5 cm
d=0.08
esp=0.2
sa=(math.pi*d*d/4.)/esp
enro=2.5e-2
exc=-epai/2.+enro

CA1=AFFE_CARA_ELEM(MODELE=MO1,
                   COQUE=_F(GROUP_MA='SDAL',EPAIS=epai,COQUE_NCOU=10),
                                 GRILLE=_F(GROUP_MA='ARMA',SECTION=sa,EXCENTREMENT=exc,ANGL_REP=(0.,0.)),
                                 )

BETON=DEFI_MATERIAU(ELAS=_F(E=3.E10, NU=0.2, ALPHA=1.E-5))
ACIER=DEFI_MATERIAU(ELAS=_F(E=2.E11, NU=0.3, ALPHA=2.E-5))

CL1=AFFE_CHAR_MECA(MODELE=MO1,
                   DDL_IMPO=(_F(GROUP_MA=('APP1','APP2'),DZ=0.),
                                           _F(GROUP_NO=('C1'),DY=0.),
                                           _F(GROUP_MA=('APP1'),DX=0.),)
                                 )


# chargement thermique par projection du calcul 3D
TEMP_SP2=PROJ_CHAMP(PROJECTION='OUI',METHODE='SOUS_POINT',
                   MAILLAGE_1 = MATH,
                   MODELE_2   = MO1,
                   RESULTAT   = RESUTH,
                                 NOM_CHAM   = 'TEMP',
                   CARA_ELEM  = CA1,
                   )

CHMA2=AFFE_MATERIAU(MAILLAGE=MA1,
                    AFFE=(_F(GROUP_MA='SDAL',MATER=BETON),
                                        _F(GROUP_MA='ARMA',MATER=ACIER),),
                    AFFE_VARC = _F( TOUT = 'OUI', NOM_VARC = 'TEMP', EVOL=TEMP_SP2,VALE_REF=20.),
                                  )

U2=STAT_NON_LINE(MODELE=MO1,
                 CHAM_MATER=CHMA2,
                 CARA_ELEM=CA1,
                 EXCIT=(_F(CHARGE=CL1,),
                                             ),
                 COMPORTEMENT=_F(GROUP_MA=('SDAL','ARMA'),RELATION='ELAS'),
                 NEWTON=_F(REAC_INCR=1,
                            REAC_ITER=1,
                            REAC_ITER_ELAS=1,
                            MATRICE='TANGENTE',
                            PAS_MINI_ELAS=100,
                            ),
                 INCREMENT=_F(LIST_INST=LINST),
                 );


U2 = CALC_CHAMP(RESULTAT = U2, reuse=U2, DEFORMATION = ('EPSI_ELGA','EPVC_ELGA','EPME_ELGA'),)
U2 = CALC_CHAMP(RESULTAT = U2, reuse=U2, DEFORMATION = ('EPSP_ELGA',),)

#IMPR_RESU(RESU=_F(RESULTAT=U2, MAILLE='AM27', INST = 1.0, NOM_CHAM=('SIEF_ELGA','EPSI_ELGA','EPSP_ELGA',)))

TEST_RESU(RESU=(_F(INST=1.,
                   REFERENCE='AUTRE_ASTER',
                   RESULTAT=U2,
                   NOM_CHAM='DEPL',
                   GROUP_NO='C5',
                   NOM_CMP='DZ',
                   VALE_CALC=-0.00282282766283,
                   VALE_REFE=-0.00282282766283,
                   PRECISION=1.E-6,),
                _F(INST=1.,
                   REFERENCE='AUTRE_ASTER',
                   RESULTAT=U2,
                   NOM_CHAM='SIEF_ELGA',
                   MAILLE='M27',
                                 POINT=1,
                                 SOUS_POINT=1,
                   NOM_CMP='SIXX',
                   VALE_CALC=7199925.74908,
                   VALE_REFE=7199925.74908,
                   PRECISION=1.E-6,
                   ),
                _F(INST=1.,
                   REFERENCE='AUTRE_ASTER',
                   RESULTAT=U2,
                   NOM_CHAM='SIEF_ELGA',
                   MAILLE='M27',
                                 POINT=1,
                                 SOUS_POINT=30,
                   NOM_CMP='SIXX',
                   VALE_CALC=-1676417.28099,
                   VALE_REFE=-1676417.28099,
                   PRECISION=1.E-6,
                   ),
                _F(INST=1.,
                   REFERENCE='AUTRE_ASTER',
                   RESULTAT=U2,
                   NOM_CHAM='SIEF_ELGA',
                   MAILLE='AM27',
                                 POINT=1,
                                 SOUS_POINT=1,
                   NOM_CMP='SIXX',
                   VALE_CALC=-12217134.2086,
                   VALE_REFE=-12217134.2086,
                   PRECISION=1.E-6,
                   ),
               ))


TEST_RESU(RESU=(
                _F(INST=1.,
                   REFERENCE='ANALYTIQUE',
                   RESULTAT=U2,
                   NOM_CHAM='EPVC_ELGA',
                   MAILLE='M27',
                   POINT=1,
                   SOUS_POINT=8,
                   NOM_CMP='EPTHER_L',
                   VALE_CALC= 22.5E-5,
                   VALE_REFE= 22.5E-5,
                   PRECISION=1.E-6,
                   ),
                _F(INST=1.,
                   REFERENCE='ANALYTIQUE',
                   RESULTAT=U2,
                   NOM_CHAM='EPVC_ELGA',
                   MAILLE='M27',
                   POINT=1,
                   SOUS_POINT=15,
                   NOM_CMP='EPTHER_L',
                   VALE_CALC=15E-5,
                   VALE_REFE=15E-5,
                   PRECISION=1.E-6,
                   ),
               _F(INST=1.,
                   REFERENCE='ANALYTIQUE',
                   RESULTAT=U2,
                   NOM_CHAM='EPVC_ELGA',
                   MAILLE='M27',
                   POINT=1,
                   SOUS_POINT=23,
                   NOM_CMP='EPTHER_L',
                   
                   VALE_CALC=7.5E-5,
                   VALE_REFE=7.5E-5,
                   PRECISION=1.E-6,
                   ),
               ))

TEST_RESU(RESU=(
                _F(INST=1.,
                   RESULTAT=U2,
                   NOM_CHAM='EPSI_ELGA',
                   MAILLE='M27',
                   POINT=1,
                   SOUS_POINT=8,
                   NOM_CMP='EPXX',
                   VALE_CALC= 3.934818089E-04,
                   ),
                _F(INST=1.,
                   RESULTAT=U2,
                   NOM_CHAM='EPSI_ELGA',
                   MAILLE='M27',
                   POINT=1,
                   SOUS_POINT=15,
                   NOM_CMP='EPYY',
                   VALE_CALC=1.315366886E-04,
                   ),
               ))




TEST_RESU(RESU=(
                _F(INST=1.,
                   REFERENCE='ANALYTIQUE',
                   RESULTAT=U2,
                   NOM_CHAM='EPME_ELGA',
                   MAILLE='M27',
                   POINT=1,
                   SOUS_POINT=8,
                   NOM_CMP='EPXX',
                   VALE_CALC= 0.0001684818089,
                   VALE_REFE= 0.0001684818089,
                   PRECISION=1.E-6,
                   ),
                _F(INST=1.,
                   REFERENCE='ANALYTIQUE',
                   RESULTAT=U2,
                   NOM_CHAM='EPME_ELGA',
                   MAILLE='M27',
                   POINT=1,
                   SOUS_POINT=15,
                   NOM_CMP='EPYY',
                   VALE_CALC=-1.84633114e-05,
                   VALE_REFE=-1.84633114e-05,
                   PRECISION=1.E-6,
                   ),
               ))


TEST_RESU(RESU=(
                _F(INST=1.,
                   REFERENCE='ANALYTIQUE',
                   RESULTAT=U2,
                   NOM_CHAM='EPSP_ELGA',
                   MAILLE='M27',
                   POINT=1,
                   SOUS_POINT=8,
                   NOM_CMP='EPXX',
                   VALE_CALC= 0.0,
                   VALE_REFE= 0.0,
                   PRECISION=1.E-6,
                   CRITERE = 'ABSOLU',
                   ),
                _F(INST=1.,
                   REFERENCE='ANALYTIQUE',
                   RESULTAT=U2,
                   NOM_CHAM='EPSP_ELGA',
                   MAILLE='M27',
                   POINT=1,
                   SOUS_POINT=8,
                   NOM_CMP='EPYY',
                   VALE_CALC= 0.0,
                   VALE_REFE= 0.0,
                   PRECISION=1.E-6,
                   CRITERE = 'ABSOLU',
                   ),
                _F(INST=1.,
                   REFERENCE='ANALYTIQUE',
                   RESULTAT=U2,
                   NOM_CHAM='EPSP_ELGA',
                   MAILLE='M27',
                   POINT=1,
                   SOUS_POINT=8,
                   NOM_CMP='EPXY',
                   VALE_CALC= 0.0,
                   VALE_REFE= 0.0,
                   PRECISION=1.E-6,
                   CRITERE = 'ABSOLU',
                   ),
               ))


TEST_RESU(RESU=(
                _F(INST=1.,
                   RESULTAT=U2,
                   NOM_CHAM='EPSI_ELGA',
                   MAILLE='AM27',
                   POINT=1,
                   SOUS_POINT=1,
                   NOM_CMP='EXX',
                   VALE_CALC= 3.889143290E-04,
                   ),
               ))


TEST_RESU(RESU=(
                _F(INST=1.,
                   REFERENCE='ANALYTIQUE',
                   RESULTAT=U2,
                   NOM_CHAM='EPVC_ELGA',
                   MAILLE='AM27',
                   POINT=1,
                   SOUS_POINT=1,
                   NOM_CMP='EPTHER_L',
                   VALE_CALC= 45E-5,
                   VALE_REFE= 45E-5,
                   PRECISION=1.E-6,
                   ),
               ))


TEST_RESU(RESU=(
                _F(INST=1.,
                   REFERENCE='ANALYTIQUE',
                   RESULTAT=U2,
                   NOM_CHAM='EPME_ELGA',
                   MAILLE='AM27',
                   POINT=1,
                   SOUS_POINT=1,
                   NOM_CMP='EXX',
                   VALE_CALC= -6.108567099999998e-05,
                   VALE_REFE= -6.108567099999998e-05,
                   PRECISION=1.E-6,
                   ),
               ))

TEST_RESU(RESU=(
                _F(INST=1.,
                   REFERENCE='ANALYTIQUE',
                   RESULTAT=U2,
                   NOM_CHAM='EPSP_ELGA',
                   MAILLE='AM27',
                   POINT=1,
                   SOUS_POINT=1,
                   NOM_CMP='EXX',
                   VALE_CALC= 0.,
                   VALE_REFE= 0.,
                   PRECISION=1.E-6,
                   CRITERE = 'ABSOLU',
                   ),
               ))



BETON3=DEFI_MATERIAU(ELAS=_F(E=3.E10, NU=0.2, ALPHA=1.E-5),
                    ECRO_LINE=_F(
                                 D_SIGM_EPSI = 1.E10,
                                 SY = 5E+6)
                   )
ACIER3=DEFI_MATERIAU(ELAS=_F(E=2.E11, NU=0.3, ALPHA=2.E-5),
                    ECRO_LINE=_F(
                                 D_SIGM_EPSI = 0.5E11,
                                 SY = 1E7)
                   )




CHMA3=AFFE_MATERIAU(MAILLAGE=MA1,
                    AFFE=(_F(GROUP_MA='SDAL',MATER=BETON3),
                                        _F(GROUP_MA='ARMA',MATER=ACIER3),),
                    AFFE_VARC = _F( TOUT = 'OUI', NOM_VARC = 'TEMP', EVOL=TEMP_SP2,VALE_REF=20.),
                                  )

U3=STAT_NON_LINE(MODELE=MO1,
                 CHAM_MATER=CHMA3,
                 CARA_ELEM=CA1,
                 EXCIT=(_F(CHARGE=CL1,),
                                             ),
                 COMPORTEMENT=(_F(GROUP_MA=('SDAL',),RELATION='VMIS_ISOT_LINE'),
                               _F(GROUP_MA=('ARMA',),RELATION='GRILLE_ISOT_LINE'),
                              
                              ),
                 NEWTON=_F(REAC_INCR=1,
                            REAC_ITER=1,
                            REAC_ITER_ELAS=1,
                            MATRICE='TANGENTE',
                            PAS_MINI_ELAS=100,
                            ),
                 INCREMENT=_F(LIST_INST=LINST),
                 );


U3 = CALC_CHAMP(RESULTAT = U3, reuse=U3, DEFORMATION = ('EPSI_ELGA','EPME_ELGA','EPVC_ELGA'),)
U3 = CALC_CHAMP(RESULTAT = U3, reuse=U3, DEFORMATION = ('EPSP_ELGA',),)
U3 = CALC_CHAMP(RESULTAT = U3, reuse=U3, DEFORMATION = ('EPSI_ELNO','EPME_ELNO','EPVC_ELNO'),)
U3 = CALC_CHAMP(RESULTAT = U3, reuse=U3, DEFORMATION = ('EPSP_ELNO',),)


COU_MOY = POST_CHAMP(RESULTAT=U3, 
                     EXTR_COQUE=_F(NOM_CHAM =('EPME_ELGA',
                                              'EPVC_ELGA','EPSP_ELGA',
                                              'EPME_ELNO',
                                              'EPVC_ELNO','EPSP_ELNO'), 
                                              NUME_COUCHE = 1, 
                                              NIVE_COUCHE = 'MOY'))



TEST_RESU(RESU=(
                _F(INST=1.,
                   RESULTAT=U3,
                   NOM_CHAM='SIEF_ELGA',
                   MAILLE='M27',
                   POINT=1,
                   SOUS_POINT=8,
                   NOM_CMP='SIXX',
                   VALE_CALC= 4692545.78591,
                   ),
                _F(INST=1.,
                   RESULTAT=U3,
                   NOM_CHAM='SIEF_ELGA',
                   MAILLE='M27',
                   POINT=1,
                   SOUS_POINT=8,
                   NOM_CMP='SIYY',
                   VALE_CALC=-435458.298972,
                   ),
# on ne met pas ce test, car il n'est pas vérifié
                #_F(INST=1.,
                   #RESULTAT=U3,
                   #NOM_CHAM='SIEF_ELGA',
                   #MAILLE='M27',
                   #POINT=1,
                   #SOUS_POINT=8,
                   #NOM_CMP='SIZZ',
                   #VALE_CALC=0.,
                   #),
                _F(INST=1.,
                   RESULTAT=U3,
                   NOM_CHAM='SIEF_ELGA',
                   MAILLE='M27',
                   POINT=1,
                   SOUS_POINT=8,
                   NOM_CMP='SIXY',
                   VALE_CALC=-984198.049033,
                   ),
               ))



TEST_RESU(RESU=(
                _F(INST=1.,
                   RESULTAT=U3,
                   NOM_CHAM='EPME_ELGA',
                   MAILLE='M27',
                   POINT=1,
                   SOUS_POINT=8,
                   NOM_CMP='EPXX',
                   VALE_CALC= 0.000172601772587,
                   ),
                _F(INST=1.,
                   RESULTAT=U3,
                   NOM_CHAM='EPME_ELGA',
                   MAILLE='M27',
                   POINT=1,
                   SOUS_POINT=8,
                   NOM_CMP='EPYY',
                   VALE_CALC=-5.33224957473E-05,
                   ),
                _F(INST=1.,
                   RESULTAT=U3,
                   NOM_CHAM='EPME_ELGA',
                   MAILLE='M27',
                   POINT=1,
                   SOUS_POINT=8,
                   NOM_CMP='EPXY',
                   VALE_CALC=-4.3360773596E-05,
                   ),
               ))


TEST_RESU(RESU=(
                _F(INST=1.,
                   REFERENCE='ANALYTIQUE',
                   RESULTAT=U3,
                   NOM_CHAM='EPSP_ELGA',
                   MAILLE='M27',
                   POINT=1,
                   SOUS_POINT=8,
                   NOM_CMP='EPXX',
                   VALE_CALC= 1.3280524396853315e-05,
                   VALE_REFE= 1.3280524396853315e-05,
                   PRECISION=1.E-6,
                   ),
                _F(INST=1.,
                   REFERENCE='ANALYTIQUE',
                   RESULTAT=U3,
                   NOM_CHAM='EPSP_ELGA',
                   MAILLE='M27',
                   POINT=1,
                   SOUS_POINT=8,
                   NOM_CMP='EPYY',
                   VALE_CALC=-7.523580542166669e-06,
                   VALE_REFE=-7.523580542166669e-06,
                   PRECISION=1.E-6,
                   ),
                _F(INST=1.,
                   REFERENCE='ANALYTIQUE',
                   RESULTAT=U3,
                   NOM_CHAM='EPSP_ELGA',
                   MAILLE='M27',
                   POINT=1,
                   SOUS_POINT=8,
                   NOM_CMP='EPXY',
                   VALE_CALC=-3.992851634680005e-06,
                   VALE_REFE=-3.992851634680005e-06,
                   PRECISION=1.E-6,
                   ),
               ))



TEST_RESU(RESU=(
                _F(INST=1.,
                   RESULTAT=U3,
                   NOM_CHAM='SIEF_ELGA',
                   MAILLE='AM27',
                   POINT=1,
                   NOM_CMP='SIXX',
                   VALE_CALC= -10298988.0073,
                   ),
               ))



TEST_RESU(RESU=(
                _F(INST=1.,
                   RESULTAT=U3,
                   NOM_CHAM='EPME_ELGA',
                   MAILLE='AM27',
                   POINT=1,
                   NOM_CMP='EXX',
                   VALE_CALC= -5.59797601457E-05,
                   ),
               ))


TEST_RESU(RESU=(
                _F(INST=1.,
                   REFERENCE='ANALYTIQUE',
                   RESULTAT=U3,
                   NOM_CHAM='EPSP_ELGA',
                   MAILLE='AM27',
                   POINT=1,
                   NOM_CMP='EXX',
                   VALE_CALC= -4.484820109199999e-06,
                   VALE_REFE= -4.484820109199999e-06,
                   PRECISION=1.E-6,
                   ),
               ))


               
FIN()
