# MODIF  DATE 01/03/2000   AUTEUR ADBHHPM P.MASSIN 
# TITRE VALIDATION DU MOT CLE LIAISON_MAIL EN MECA. ET THERM. (3D)
#            CONFIGURATION MANAGEMENT OF EDF VERSION
# ======================================================================
# COPYRIGHT (C) 1991 - 2001  EDF R&D                  WWW.CODE-ASTER.ORG
# THIS PROGRAM IS FREE SOFTWARE; YOU CAN REDISTRIBUTE IT AND/OR MODIFY
# IT UNDER THE TERMS OF THE GNU GENERAL PUBLIC LICENSE AS PUBLISHED BY
# THE FREE SOFTWARE FOUNDATION; EITHER VERSION 2 OF THE LICENSE, OR   
# (AT YOUR OPTION) ANY LATER VERSION.                                 
#
# THIS PROGRAM IS DISTRIBUTED IN THE HOPE THAT IT WILL BE USEFUL, BUT 
# WITHOUT ANY WARRANTY; WITHOUT EVEN THE IMPLIED WARRANTY OF          
# MERCHANTABILITY OR FITNESS FOR A PARTICULAR PURPOSE. SEE THE GNU    
# GENERAL PUBLIC LICENSE FOR MORE DETAILS.                            
#
# YOU SHOULD HAVE RECEIVED A COPY OF THE GNU GENERAL PUBLIC LICENSE   
# ALONG WITH THIS PROGRAM; IF NOT, WRITE TO EDF R&D CODE_ASTER,       
#    1 AVENUE DU GENERAL DE GAULLE, 92141 CLAMART CEDEX, FRANCE.      
# ======================================================================
#======================================================================
DEBUT( CODE=_F(  NOM = 'ZZZZ127B',NIV_PUB_WEB='INTERNET') )

MA=LIRE_MAILLAGE( )

MO=AFFE_MODELE(  MAILLAGE=MA,
                   AFFE=_F(  TOUT = 'OUI',  PHENOMENE = 'MECANIQUE',
                          MODELISATION = '3D'))

CH0=AFFE_CHAR_MECA(  MODELE=MO,DDL_IMPO=(
             _F(  NOEUD = ('A',),        DZ = 0.),
             _F(  NOEUD = ('A','A2',),     DX = 0., DY = 0.),
             _F(  NOEUD = ('D','D2',),     DX = 0.)),
             FORCE_NODALE=_F(  NOEUD = ('F','F2',),   FY = 2.)
                    )

MAT=DEFI_MATERIAU(    ELAS=_F( E = 10.,   NU = 0.0) )

CHMAT=AFFE_MATERIAU(  MAILLAGE=MA,
      AFFE=_F(  TOUT = 'OUI',  MATER = MAT, TEMP_REF = 20.))

#======================================================
# 1- CAS DE CHARGE 1 :  ON RELIE TOUT LE DEPLACEMENT
#======================================================

# 1-1 AVEC LIAISON_DDL :
# --------------------

CH11=AFFE_CHAR_MECA(  MODELE=MO,LIAISON_DDL=(
        _F( NOEUD = ('E','D','C',),
         DDL = ('DX','DY','DY',), COEF_MULT = (1.,-0.5,-0.5,), COEF_IMPO = 0.),
        _F( NOEUD = ('E','D','C',),
         DDL = ('DY','DX','DX',), COEF_MULT = (1.,0.5,0.5,), COEF_IMPO = 0.),
        _F( NOEUD = ('E','D','C',),
         DDL = ('DZ','DZ','DZ',), COEF_MULT = (1.,-0.5,-0.5,), COEF_IMPO = 0.),

        _F( NOEUD = ('E2','D2','C2',),
         DDL = ('DX','DY','DY',), COEF_MULT = (1.,-0.5,-0.5,), COEF_IMPO = 0.),
        _F( NOEUD = ('E2','D2','C2',),
         DDL = ('DY','DX','DX',), COEF_MULT = (1.,0.5,0.5,), COEF_IMPO = 0.),
        _F( NOEUD = ('E2','D2','C2',),
         DDL = ('DZ','DZ','DZ',), COEF_MULT = (1.,-0.5,-0.5,), COEF_IMPO = 0.))
             )

MEST11=MECA_STATIQUE(    MODELE=MO,    CHAM_MATER=CHMAT,EXCIT=(
                _F( CHARGE = CH0), _F( CHARGE = CH11)) )

# 1-2 AVEC LIAISON_MAIL :
# --------------------

CH12=AFFE_CHAR_MECA(  MODELE=MO,  INFO=2,
    LIAISON_MAIL=_F( MAILLE_MAIT = ('Q1','Q2',),   NOEUD_ESCL = ('E','E2',),
       TRAN = ( -5., 0., 0.,), CENTRE = (10., 0., 0.,), ANGL_NAUT = (90.,0.,0.,)) )

MEST12=MECA_STATIQUE(    MODELE=MO,    CHAM_MATER=CHMAT,EXCIT=(
                _F( CHARGE = CH0), _F( CHARGE = CH12)) )

TEST_RESU(RESU=(
_F( RESULTAT = MEST11, NOM_CHAM = 'DEPL', NUME_ORDRE = 1,
      NOEUD = 'F', NOM_CMP = 'DY', PRECISION = 1.E-12, VALE = 1.4153582447720E+00,
      REFERENCE = 'NON_REGRESSION'),
_F( RESULTAT = MEST12, NOM_CHAM = 'DEPL', NUME_ORDRE = 1,
      NOEUD = 'F', NOM_CMP = 'DY', PRECISION = 1.E-12, VALE = 1.4153582447720E+00,
      REFERENCE = 'AUTRE_ASTER'))
            )

#=============================================================
# 2- CAS DE CHARGE 2 :  ON NE RELIE QUE LE DEPLACEMENT NORMAL
#==============================================================

# 2-1 AVEC LIAISON_DDL :
# --------------------

CH21=AFFE_CHAR_MECA(  MODELE=MO,LIAISON_DDL=(
        _F( NOEUD = ('E','D','C',),
         DDL = ('DY','DY','DY',), COEF_MULT = (1.,0.5,0.5,), COEF_IMPO = 0.),
        _F( NOEUD = ('B','C','F',),
         DDL = ('DY','DY','DY',), COEF_MULT = (1.,0.5,0.5,), COEF_IMPO = 0.),

        _F( NOEUD = ('E2','D2','C2',),
         DDL = ('DY','DY','DY',), COEF_MULT = (1.,0.5,0.5,), COEF_IMPO = 0.),
        _F( NOEUD = ('B2','C2','F2',),
         DDL = ('DY','DY','DY',), COEF_MULT = (1.,0.5,0.5,), COEF_IMPO = 0.))
             )

MEST21=MECA_STATIQUE(    MODELE=MO,    CHAM_MATER=CHMAT,EXCIT=(
                _F( CHARGE = CH0), _F( CHARGE = CH21)) )

# 2-2 AVEC LIAISON_MAIL :
# --------------------

CH22=AFFE_CHAR_MECA(  MODELE=MO,
      LIAISON_MAIL=_F( MAILLE_MAIT = ('Q1','Q2',),   MAILLE_ESCL = 'S1',
         TRAN = ( 5., 10., 0.,), CENTRE = (10., 0., 0.,), ANGL_NAUT = (180.,0.,0.,),
         DDL_MAIT = 'DNOR', DDL_ESCL = 'DNOR') )

MEST22=MECA_STATIQUE(    MODELE=MO,    CHAM_MATER=CHMAT,EXCIT=(
                _F( CHARGE = CH0), _F( CHARGE = CH22)) )

TEST_RESU(RESU=(
_F( RESULTAT = MEST21, NOM_CHAM = 'DEPL', NUME_ORDRE = 1,
      NOEUD = 'F', NOM_CMP = 'DY', PRECISION = 1.E-12, VALE = 1.0561898652983E+00,
      REFERENCE = 'NON_REGRESSION'),
_F( RESULTAT = MEST22, NOM_CHAM = 'DEPL', NUME_ORDRE = 1,
      NOEUD = 'F', NOM_CMP = 'DY', PRECISION = 1.E-12, VALE = 1.0561898652983E+00,
      REFERENCE = 'AUTRE_ASTER'))
            )

#======================================================
# 3- CAS DE CHARGE 3 :  ON RELIE LA TEMPERATURE

#======================================================


DETRUIRE(CONCEPT=_F( NOM = 'MO'))

DETRUIRE(CONCEPT=_F( NOM = 'CH0'))

DETRUIRE(CONCEPT=_F( NOM = 'MAT'))

DETRUIRE(CONCEPT=_F( NOM = 'CHMAT'))

DETRUIRE(CONCEPT=_F( NOM = 'CH11'))

DETRUIRE(CONCEPT=_F( NOM = 'MEST11'))

DETRUIRE(CONCEPT=_F( NOM = 'CH12'))

DETRUIRE(CONCEPT=_F( NOM = 'MEST12'))

MO=AFFE_MODELE(  MAILLAGE=MA,
                   AFFE=_F(  TOUT = 'OUI',  PHENOMENE = 'THERMIQUE',
                          MODELISATION = '3D'))

CH0=AFFE_CHAR_THER(  MODELE=MO,TEMP_IMPO=(
             _F(  NOEUD = ('A','A2',),     TEMP = 0.),
             _F(  NOEUD = ('D','D2',),     TEMP = 4.))
                    )

MAT=DEFI_MATERIAU(    THER=_F( LAMBDA = 10.) )

CHMAT=AFFE_MATERIAU(  MAILLAGE=MA,
      AFFE=_F(  TOUT = 'OUI',  MATER = MAT, TEMP_REF = 20.))

# 3-1 AVEC LIAISON_DDL :

# --------------------

CH11=AFFE_CHAR_THER(  MODELE=MO,LIAISON_DDL=(
    _F( NOEUD = ('E','D','C',),
     DDL = ('TEMP','TEMP','TEMP',), COEF_MULT = (1.,-0.5,-0.5,), COEF_IMPO = 0.), 
    _F( NOEUD = ('E2','D2','C2',),
     DDL = ('TEMP','TEMP','TEMP',), COEF_MULT = (1.,-0.5,-0.5,), COEF_IMPO = 0.)) 
         )

MEST11=THER_LINEAIRE(    MODELE=MO,    CHAM_MATER=CHMAT,EXCIT=(
                _F( CHARGE = CH0), _F( CHARGE = CH11)) )

# 3-2 AVEC LIAISON_MAIL :

# --------------------

CH12=AFFE_CHAR_THER(  MODELE=MO,   INFO=2,
            LIAISON_MAIL=_F( MAILLE_MAIT = ('Q1','Q2',),   NOEUD_ESCL = ('E','E2',),
               TRAN = ( -5., 0.,), CENTRE = (10., 0.,), ANGL_NAUT = 90.) )

MEST12=THER_LINEAIRE(    MODELE=MO,    CHAM_MATER=CHMAT,EXCIT=(
                _F( CHARGE = CH0), _F( CHARGE = CH12)) )

TEST_RESU(RESU=(
_F( RESULTAT = MEST11, NOM_CHAM = 'TEMP', NUME_ORDRE = 0,
      NOEUD = 'F', NOM_CMP = 'TEMP', PRECISION = 1.E-12, VALE = 2.5000000000000E+00,
      REFERENCE = 'NON_REGRESSION'),
_F( RESULTAT = MEST12, NOM_CHAM = 'TEMP', NUME_ORDRE = 0,
      NOEUD = 'F', NOM_CMP = 'TEMP', PRECISION = 1.E-12, VALE = 2.5000000000000E+00,
      REFERENCE = 'AUTRE_ASTER'))
            )

FIN()
#
