# MODIF  DATE 10/10/2012   AUTEUR COURTOIS M.COURTOIS 

# TITRE  : CAS-TEST PERMETTANT LA VERIFICATION DU MOT-CLE DNOR DE L'OPERATEUR AFFE_CHAR_MECA
# zzzz238a.para = tps_job 60 mem_job 256Mo ncpus 1 liste_test S
#            CONFIGURATION MANAGEMENT OF EDF VERSION
# ======================================================================
# COPYRIGHT (C) 1991 - 2012  EDF R&D                  WWW.CODE-ASTER.ORG
# THIS PROGRAM IS FREE SOFTWARE; YOU CAN REDISTRIBUTE IT AND/OR MODIFY  
# IT UNDER THE TERMS OF THE GNU GENERAL PUBLIC LICENSE AS PUBLISHED BY  
# THE FREE SOFTWARE FOUNDATION; EITHER VERSION 2 OF THE LICENSE, OR     
# (AT YOUR OPTION) ANY LATER VERSION.                                                    
#                                                                       
# THIS PROGRAM IS DISTRIBUTED IN THE HOPE THAT IT WILL BE USEFUL, BUT   
# WITHOUT ANY WARRANTY; WITHOUT EVEN THE IMPLIED WARRANTY OF            
# MERCHANTABILITY OR FITNESS FOR A PARTICULAR PURPOSE. SEE THE GNU      
# GENERAL PUBLIC LICENSE FOR MORE DETAILS.                              
#                                                                       
# YOU SHOULD HAVE RECEIVED A COPY OF THE GNU GENERAL PUBLIC LICENSE     
# ALONG WITH THIS PROGRAM; IF NOT, WRITE TO EDF R&D CODE_ASTER,         
#    1 AVENUE DU GENERAL DE GAULLE, 92141 CLAMART CEDEX, FRANCE.        
# ======================================================================
#          IMPOSE SUR UNE FACE COURBE, AVEC UN MAILLAGE CONSTITUE DE HEXA20.
# AUTEUR : F. LEBOUVIER DELTACAD (22/05/08)

DEBUT(CODE=_F(NOM='ZZZZ238A',NIV_PUB_WEB='INTERNET'),DEBUG=_F(SDVERI='OUI'))

MA = LIRE_MAILLAGE(FORMAT='MED',INFO=2)

MA = DEFI_GROUP(reuse=MA, MAILLAGE=MA,
                CREA_GROUP_NO=(_F(GROUP_MA='DROITE'),
                               _F(GROUP_MA='GAUCHE'),
                               _F(NOEUD='N7' , NOM = 'H'),
                               _F(NOEUD='N58', NOM = 'I'),
                               _F(NOEUD='N60', NOM = 'J'),
                              ),
                )

MO=AFFE_MODELE(
                MAILLAGE=MA,
                AFFE=_F(  TOUT = 'OUI',
                       PHENOMENE = 'MECANIQUE',
                       MODELISATION = '3D')  )

MAT=DEFI_MATERIAU(     ELAS=_F(  E = 200000.,
                                  NU = 0.,),                 )

CHMAT=AFFE_MATERIAU( MAILLAGE=MA,
                     AFFE=_F(  TOUT = 'OUI',  MATER = MAT,)
                    )



CHBLO = AFFE_CHAR_MECA(    MODELE=MO,
                 DDL_IMPO=_F(  GROUP_NO ='GAUCHE', DX=0.0, DY=0.0, DZ = 0.),)

CHDNOR = AFFE_CHAR_MECA(    MODELE=MO,
                 FACE_IMPO=_F( GROUP_MA ='DROITE', DNOR=0.15,),)

SOL = MECA_STATIQUE( MODELE=MO,
                     CHAM_MATER=CHMAT,
                     EXCIT=(
                         _F(CHARGE = CHBLO),
                         _F(CHARGE = CHDNOR),),)

TEST_RESU(RESU=(_F(NUME_ORDRE=1,
                   GROUP_NO='H',
                   RESULTAT=SOL,
                   NOM_CHAM='DEPL',
                   NOM_CMP='DX',
                   VALE_CALC=0.1126635,
                   TOLE_MACHINE=1.E-3,
                   ),
                _F(NUME_ORDRE=1,
                   GROUP_NO='H',
                   RESULTAT=SOL,
                   NOM_CHAM='DEPL',
                   NOM_CMP='DY',
                   VALE_CALC=0.1144527,
                   TOLE_MACHINE=1.E-3,
                   ),
                _F(NUME_ORDRE=1,
                   GROUP_NO='H',
                   RESULTAT=SOL,
                   NOM_CHAM='DEPL',
                   NOM_CMP='DZ',
                   VALE_CALC=-0.021772280000000001,
                   TOLE_MACHINE=1.E-3,
                   ),
                _F(NUME_ORDRE=1,
                   GROUP_NO='I',
                   RESULTAT=SOL,
                   NOM_CHAM='DEPL',
                   NOM_CMP='DX',
                   VALE_CALC=0.1073518,
                   TOLE_MACHINE=1.E-3,
                   ),
                _F(NUME_ORDRE=1,
                   GROUP_NO='I',
                   RESULTAT=SOL,
                   NOM_CHAM='DEPL',
                   NOM_CMP='DY',
                   VALE_CALC=0.1071796,
                   TOLE_MACHINE=1.E-3,
                   ),
                _F(NUME_ORDRE=1,
                   GROUP_NO='I',
                   RESULTAT=SOL,
                   NOM_CHAM='DEPL',
                   NOM_CMP='DZ',
                   VALE_CALC=-0.013416000000000001,
                   TOLE_MACHINE=1.E-3,
                   ),
                _F(NUME_ORDRE=1,
                   GROUP_NO='J',
                   REFERENCE='ANALYTIQUE',
                   RESULTAT=SOL,
                   NOM_CHAM='DEPL',
                   NOM_CMP='DX',
                   VALE_CALC=0.106087182,
                   VALE_REFE=0.10606599999999999,),
                _F(NUME_ORDRE=1,
                   GROUP_NO='J',
                   REFERENCE='ANALYTIQUE',
                   RESULTAT=SOL,
                   NOM_CHAM='DEPL',
                   NOM_CMP='DY',
                   VALE_CALC=0.106044853,
                   VALE_REFE=0.10606599999999999,),
                _F(NUME_ORDRE=1,
                   GROUP_NO='J',
                   REFERENCE='ANALYTIQUE',
                   RESULTAT=SOL,
                   NOM_CHAM='DEPL',
                   NOM_CMP='DZ',
                   VALE_CALC=-6.17576566E-16,
                   VALE_REFE=0.0,
                   CRITERE='ABSOLU',),
                ),
          )

FIN()


