
# MODIF  DATE 11/09/2012   AUTEUR DELMAS J.DELMAS 
# TITRE : TESTS DE FONCTIONNALITE DE POST_RELEVE_T
# zzzz136d.para = tps_job 60 mem_job 512Mo liste_test R
#            CONFIGURATION MANAGEMENT OF EDF VERSION
# ======================================================================
# COPYRIGHT (C) 1991 - 2012  EDF R&D                  WWW.CODE-ASTER.ORG
# THIS PROGRAM IS FREE SOFTWARE; YOU CAN REDISTRIBUTE IT AND/OR MODIFY
# IT UNDER THE TERMS OF THE GNU GENERAL PUBLIC LICENSE AS PUBLISHED BY
# THE FREE SOFTWARE FOUNDATION; EITHER VERSION 2 OF THE LICENSE, OR
# (AT YOUR OPTION) ANY LATER VERSION.
#
# THIS PROGRAM IS DISTRIBUTED IN THE HOPE THAT IT WILL BE USEFUL, BUT
# WITHOUT ANY WARRANTY; WITHOUT EVEN THE IMPLIED WARRANTY OF
# MERCHANTABILITY OR FITNESS FOR A PARTICULAR PURPOSE. SEE THE GNU
# GENERAL PUBLIC LICENSE FOR MORE DETAILS.
#
# YOU SHOULD HAVE RECEIVED A COPY OF THE GNU GENERAL PUBLIC LICENSE
# ALONG WITH THIS PROGRAM; IF NOT, WRITE TO EDF R&D CODE_ASTER,
#    1 AVENUE DU GENERAL DE GAULLE, 92141 CLAMART CEDEX, FRANCE.
# ======================================================================
DEBUT(CODE=_F(NOM='ZZZZ136D',NIV_PUB_WEB='INTERNET'),DEBUG=_F(SDVERI='OUI'))

MA=LIRE_MAILLAGE(FORMAT='MED')

MA=DEFI_GROUP(reuse=MA,MAILLAGE=MA,
              CREA_GROUP_MA=(_F(UNION=('GAE','GEB'),NOM='GAB'),),
              CREA_GROUP_NO=(_F(GROUP_MA='GEF'),
                             _F(GROUP_MA='GAB'),),)

MO=AFFE_MODELE(MAILLAGE=MA,
               AFFE=_F(TOUT='OUI',
                       MODELISATION='D_PLAN',
                       PHENOMENE='MECANIQUE'),)

MAT=DEFI_MATERIAU(ELAS=_F(NU=0.3,E=2.1e+11),)

CHMAT=AFFE_MATERIAU(MAILLAGE=MA,
                    AFFE=_F(TOUT='OUI',MATER=MAT),)

CH=AFFE_CHAR_MECA(MODELE=MO,
                  LIAISON_GROUP=(_F(GROUP_MA_1='GEF',GROUP_MA_2='GFE',DDL_1='DNOR',COEF_MULT_1=1.0,DDL_2='DNOR',COEF_MULT_2=-1.0,COEF_IMPO=.0,
                  ),),
                  DDL_IMPO=(_F(GROUP_MA='GDA',DX=0,DY=0),
                            _F(GROUP_MA='GBC',DY=0),
                            _F(GROUP_MA='GBC',DX=.1),
                            )),


RESU=MECA_STATIQUE(EXCIT=_F(CHARGE=CH),
                   MODELE=MO,
                   CHAM_MATER=CHMAT)

CALC_CHAMP(reuse=RESU,RESULTAT=RESU,CRITERES=('SIEQ_ELNO'),CONTRAINTE=('SIGM_ELNO'))

IMPR_RESU(RESU=_F(RESULTAT=RESU))

TB1=POST_RELEVE_T(ACTION=_F(INTITULE='CONTRAINTES AB',
                            OPERATION='EXTRACTION',
                            RESULTAT=RESU,
                            NOM_CHAM='SIGM_ELNO',
                            NOM_CMP='SIXX',
                            GROUP_NO='GAB'),)

TB2=POST_RELEVE_T(ACTION=_F(INTITULE='TRESCA MOYEN EF',
                            OPERATION='MOYENNE',
                            RESULTAT=RESU,
                            NOM_CHAM='SIEQ_ELNO',
                            NOM_CMP='TRESCA',
                            GROUP_NO='GEF'),)

TB3=POST_RELEVE_T(ACTION=_F(INTITULE='DEPL EF REPERE UTILISATEUR',
                            REPERE='UTILISATEUR',
                            ANGL_NAUT=(60.0,0,0),
                            OPERATION='EXTRACTION',
                            RESULTAT=RESU,
                            NOM_CHAM='DEPL',
                            NOM_CMP='DX',
                            GROUP_NO='GEF'),)

TEST_TABLE( TABLE=TB1,
           FILTRE=_F( NOM_PARA = 'ABSC_CURV', VALE = 47.2783),
           NOM_PARA='SIXX',
           PRECISION=0.001,
           VALE=6.8481239601528E+08,
           REFERENCE='NON_REGRESSION')

IMPR_TABLE(TABLE=TB2)

TEST_TABLE( TABLE=TB2,
            FILTRE=_F( NOM_PARA = 'QUANTITE', VALE_K = 'MINIMUM'),
            NOM_PARA='TRESCA',
            PRECISION=0.001,
            VALE=3.0314779240868E+08,
            REFERENCE='NON_REGRESSION')

IMPR_TABLE(TABLE=TB3)

TEST_TABLE( TABLE=TB3,
            FILTRE=_F( NOM_PARA = 'ABSC_CURV', VALE = 4.91197),
            NOM_PARA='DX',
            PRECISION=0.001,
            VALE=0.06461675,
            REFERENCE='NON_REGRESSION')

FIN()
