# TITRE GENERATION DE SIGNAUX SISMIQUES  OPTION SPEC_MEDIANE
# ======================================================================
# COPYRIGHT (C) 1991 - 2013  EDF R&D                  WWW.CODE-ASTER.ORG
# THIS PROGRAM IS FREE SOFTWARE; YOU CAN REDISTRIBUTE IT AND/OR MODIFY  
# IT UNDER THE TERMS OF THE GNU GENERAL PUBLIC LICENSE AS PUBLISHED BY  
# THE FREE SOFTWARE FOUNDATION; EITHER VERSION 2 OF THE LICENSE, OR     
# (AT YOUR OPTION) ANY LATER VERSION.                                                    
#                                                                       
# THIS PROGRAM IS DISTRIBUTED IN THE HOPE THAT IT WILL BE USEFUL, BUT   
# WITHOUT ANY WARRANTY; WITHOUT EVEN THE IMPLIED WARRANTY OF            
# MERCHANTABILITY OR FITNESS FOR A PARTICULAR PURPOSE. SEE THE GNU      
# GENERAL PUBLIC LICENSE FOR MORE DETAILS.                              
#                                                                       
# YOU SHOULD HAVE RECEIVED A COPY OF THE GNU GENERAL PUBLIC LICENSE     
# ALONG WITH THIS PROGRAM; IF NOT, WRITE TO EDF R&D CODE_ASTER,         
#    1 AVENUE DU GENERAL DE GAULLE, 92141 CLAMART CEDEX, FRANCE.        
# ======================================================================
# person_in_charge: irmela.zentner at edf.fr
#
DEBUT(CODE=_F(NOM='zzzz317d',NIV_PUB_WEB='INTERNET',VISU_EFICAS='NON'))
#
#
#################################################
#
###########################################################################
# D : SIMULATION POUR DSP COMPATIBLE AVEC UN SPECTRA : FIT EN MEDIANE
###########################################################################
#
##
###############################
# DEFINITION DE DU SPECTRE CIBLE
##############################

SRO_NGA=DEFI_FONCTION(  NOM_PARA='FREQ',  INTERPOL='LOG',PROL_DROITE='CONSTANT',
                          VALE=(0.1000,  0.0080,
                                0.1333,  0.0127,0.2000, 0.0245,0.2500, 0.0303, 0.3333,  0.0414,0.5000, 0.0666,
                                0.6667, 0.0922,1.0000,  0.1415,1.3333,  0.1843,2.0000,  0.2650, 2.5000,  0.3033, 3.3333,
                                0.3430, 4.0000,  0.3647,5.0000, 0.3916,6.6667, 0.3807,10.0000, 0.3183,12.5000, 0.2648,20.0000, 
                                0.2056,25.0000, 0.1901,33.3333, 0.1719, 50.0000, 0.1618,  100.0000, 0.1593,
) )


L_FREQ = DEFI_LIST_REEL(DEBUT=0.05,
              INTERVALLE=(_F(JUSQU_A=5.0, PAS=0.1,), _F(JUSQU_A=10., PAS=0.1,),
                           _F(JUSQU_A=20.0, PAS=0.2,), _F(JUSQU_A=50.0, PAS=0.5,),
                           _F(JUSQU_A=100.0, PAS=2.0,),
                        ) );



amor=0.05
ecart=1.0/9.81*100
TSM=10.00
amo_sro=0.05
ZPA=0.1593 
ZPA_50=0.1618
SA_25=0.1901
tini=2.5

############################################
## NBTIR>1, NB_ITER=0
#############################################


nbtir=20
fc=0.025

ACCE1a=GENE_ACCE_SEISME( INFO =2,
              INIT_ALEA=200000,
              PAS_INST       =0.01, PESANTEUR =9.81,DUREE_PHASE_FORTE =TSM, NB_TIRAGE  =nbtir,NB_POIN=2**12,FREQ_FILTRE=fc,
              SPEC_MEDIANE        = _F(SPEC_OSCI  =SRO_NGA, AMOR_REDUIT     =amor,FREQ_PAS=0.01, 
                                       ERRE_ZPA  =(0.75, 0.25),ERRE_MAX  =(0.05, 0.25),ERRE_RMS  =(0.2,),),
#              MODULATION      = _F(TYPE="CONSTANT", ),              
#               MODULATION      = _F(TYPE="JENNINGS_HOUSNER", ),)
               MODULATION      = _F(TYPE="GAMMA",INST_INI=tini, ),)



FONCT1a=RECU_FONCTION(  TABLE=ACCE1a,
                        FILTRE=_F(  NOM_PARA = 'NUME_ORDRE',
                                       VALE_I = 1),
                        NOM_PARA_TABL='FONCTION',)
SRO1a=CALC_FONCTION(SPEC_OSCI=_F(FONCTION=FONCT1a, LIST_FREQ = L_FREQ, METHODE='HARMO',
                      NORME=9.81, AMOR_REDUIT=(amo_sro,),),);  


#INDIC1a=INFO_FONCTION(  NOCI_SEISME=_F(
#                   FONCTION = FONCT1a, BORNE_SUP = 0.95,BORNE_INF = 0.05,
#                   PESANTEUR = 9.81, AMOR_REDUIT=0.05,OPTION = ('TOUT')) )
#IMPR_TABLE (TABLE=INDIC1a,  UNITE=8,);




# Calcul spectre median 
FONC1=[None]*(nbtir)
SRO1=[None]*(nbtir)
l_SRO=[]


for ii in range(nbtir):
   nacc=ii+1
   FONC1[ii]=RECU_FONCTION(  TABLE=ACCE1a,
                        FILTRE=_F(  NOM_PARA = 'NUME_ORDRE',
                                       VALE_I = nacc),
                        NOM_PARA_TABL='FONCTION',)
   SRO1[ii]=CALC_FONCTION(SPEC_OSCI=_F(FONCTION=FONC1[ii], LIST_FREQ = L_FREQ, #METHODE='HARMO',
                      NORME=9.81, AMOR_REDUIT=(amo_sro,),),);  
   l_SRO.append(SRO1[ii])



SRO_MED=CALC_FONCTION(FRACTILE=_F(FONCTION=l_SRO,
                             FRACT=0.5) )



############################################
## TESTS
#############################################
#
TEST_FONCTION(VALEUR=(_F(VALE_CALC=0.16968653 ,
                         VALE_REFE=ZPA_50    ,                        
                         NOM_PARA=('AMOR', 'FREQ'), VALE_PARA=(0.05, 50.0),
                         REFERENCE='ANALYTIQUE',
                         PRECISION=0.1,
                         FONCTION=SRO_MED,),
                        _F(VALE_CALC=0.189526,
                         VALE_REFE=SA_25  ,                        
                         NOM_PARA=('AMOR', 'FREQ'), VALE_PARA=(0.05, 25.0),
                         REFERENCE='ANALYTIQUE',
                         PRECISION=0.1,
                         FONCTION=SRO_MED,),
#                        _F(VALE_CALC=0.16,
#                         VALE_REFE=ZPA_50  ,                        
#                         NOM_PARA=('AMOR', 'FREQ'), VALE_PARA=(0.05, 50.0),
#                         REFERENCE='ANALYTIQUE',
#                         PRECISION=0.1,
#                         FONCTION=SRO2[2],),

                         ),)



###
FIN( )
