# TITRE TEST DE L'OPERATEUR DECOUPE_LAC : TETRA4,TETRA10
# ======================================================================
# COPYRIGHT (C) 1991 - 2015  EDF R&D                  WWW.CODE-ASTER.ORG
# THIS PROGRAM IS FREE SOFTWARE; YOU CAN REDISTRIBUTE IT AND/OR MODIFY
# IT UNDER THE TERMS OF THE GNU GENERAL PUBLIC LICENSE AS PUBLISHED BY
# THE FREE SOFTWARE FOUNDATION; EITHER VERSION 2 OF THE LICENSE, OR
# (AT YOUR OPTION) ANY LATER VERSION.
#
# THIS PROGRAM IS DISTRIBUTED IN THE HOPE THAT IT WILL BE USEFUL, BUT
# WITHOUT ANY WARRANTY; WITHOUT EVEN THE IMPLIED WARRANTY OF
# MERCHANTABILITY OR FITNESS FOR A PARTICULAR PURPOSE. SEE THE GNU
# GENERAL PUBLIC LICENSE FOR MORE DETAILS.
#
# YOU SHOULD HAVE RECEIVED A COPY OF THE GNU GENERAL PUBLIC LICENSE
# ALONG WITH THIS PROGRAM; IF NOT, WRITE TO EDF R&D CODE_ASTER,
#    1 AVENUE DU GENERAL DE GAULLE, 92141 CLAMART CEDEX, FRANCE.
# ======================================================================
# ======================================================================
#

DEBUT(CODE=_F(NIV_PUB_WEB='INTERNET',), DEBUG=_F(SDVERI='OUI',), INFO=1,);

Mail=LIRE_MAILLAGE(UNITE=20,
                   FORMAT='MED',);


###TEST HEXA8/Face

Mail81=CREA_MAILLAGE(MAILLAGE=Mail,
                   DECOUPE_LAC=_F(GROUP_MA='Face_2',),);


TEST_RESU(MAILLAGE=(
       _F( REFERENCE='ANALYTIQUE', MAILLAGE=Mail81,
           CARA='NB_MAILLE', VALE_REFE_I=44, VALE_CALC_I=44,),
       _F( REFERENCE='ANALYTIQUE', MAILLAGE=Mail81,
           CARA='NB_NOEUD', VALE_REFE_I=11, VALE_CALC_I=11,),))


Mail82=CREA_MAILLAGE(MAILLAGE=Mail,
                   LINE_QUAD=_F(TOUT='OUI',),);

TEST_RESU(MAILLAGE=(
       _F( REFERENCE='ANALYTIQUE', MAILLAGE=Mail82,
           CARA='NB_MAILLE', VALE_REFE_I=36, VALE_CALC_I=36,),
       _F( REFERENCE='ANALYTIQUE', MAILLAGE=Mail82,
           CARA='NB_NOEUD', VALE_REFE_I=35, VALE_CALC_I=35,),))

FIN()
