# TITRE : VALIDATION INFORMATIQUE DE POST_K1_K2_K3
# ======================================================================
# COPYRIGHT (C) 1991 - 2015  EDF R&D                  WWW.CODE-ASTER.ORG
# THIS PROGRAM IS FREE SOFTWARE; YOU CAN REDISTRIBUTE IT AND/OR MODIFY  
# IT UNDER THE TERMS OF THE GNU GENERAL PUBLIC LICENSE AS PUBLISHED BY  
# THE FREE SOFTWARE FOUNDATION; EITHER VERSION 2 OF THE LICENSE, OR     
# (AT YOUR OPTION) ANY LATER VERSION.                                                    
#                                                                       
# THIS PROGRAM IS DISTRIBUTED IN THE HOPE THAT IT WILL BE USEFUL, BUT   
# WITHOUT ANY WARRANTY; WITHOUT EVEN THE IMPLIED WARRANTY OF            
# MERCHANTABILITY OR FITNESS FOR A PARTICULAR PURPOSE. SEE THE GNU      
# GENERAL PUBLIC LICENSE FOR MORE DETAILS.                              
#                                                                       
# YOU SHOULD HAVE RECEIVED A COPY OF THE GNU GENERAL PUBLIC LICENSE     
# ALONG WITH THIS PROGRAM; IF NOT, WRITE TO EDF R&D CODE_ASTER,         
#    1 AVENUE DU GENERAL DE GAULLE, 92141 CLAMART CEDEX, FRANCE.        
# ======================================================================
DEBUT(CODE=_F(NIV_PUB_WEB='INTERNET'),DEBUG=_F(SDVERI='OUI'),IGNORE_ALARM=('POST0_24','RUPTURE0_46','RUPTURE0_6',),);

#----------------------------------------------
#                   MAILLAGE
#----------------------------------------------

MAILLAGE=LIRE_MAILLAGE(FORMAT='MED')

#----------------------------------------------
#                   MODELE 
#----------------------------------------------

MODELE=AFFE_MODELE(MAILLAGE=MAILLAGE,
                   AFFE=_F(TOUT='OUI',
                           PHENOMENE='MECANIQUE',
                           MODELISATION='3D'))

MAILLAGE=MODI_MAILLAGE(reuse =MAILLAGE,
                       MAILLAGE=MAILLAGE,
                       ORIE_PEAU_3D=_F(GROUP_MA=('LEVSUP','SURFSUP','SURFINF','LEVINF')))

#----------------------------------------------
#                   MATERIAU
#----------------------------------------------

E=205000.E6
nu=0.

FONC1=DEFI_FONCTION(NOM_PARA='TEMP',
                    VALE=(  -1000., 0.3,
                            +1000., 0.3,))

FONC2=DEFI_CONSTANTE(VALE=205000.E6)                                                             
                                                    
MAT=DEFI_MATERIAU(ELAS_FO=_F( E = FONC2, NU = FONC1, TEMP_DEF_ALPHA=20.))

ACIER=DEFI_MATERIAU(ELAS=_F(E=E,
                            NU=nu))

CHAMPMA=AFFE_MATERIAU(MAILLAGE=MAILLAGE,
                      MODELE=MODELE,
                      AFFE=_F(TOUT='OUI',
                              MATER=ACIER))

#----------------------------------------------
#                   CHARGEMENTS 
#----------------------------------------------

CHA1=AFFE_CHAR_MECA(MODELE=MODELE,
                    DDL_IMPO=_F(GROUP_MA='SURFINF',
                                DX=0.,
                                DY=0.,
                                DZ=0.))
                                
CHA2=AFFE_CHAR_MECA(MODELE=MODELE,
                    PRES_REP=_F(GROUP_MA='SURFSUP',
                                PRES=-1.E6))
                                    
#----------------------------------------------
#                   RESOLUTION
#----------------------------------------------

RESU=MECA_STATIQUE(MODELE=MODELE,
                   CHAM_MATER=CHAMPMA,              
                   EXCIT=(_F(CHARGE=CHA1),
                          _F(CHARGE=CHA2)))                   

#----------------------------------------------
#                   POST-TRAITEMENT
#----------------------------------------------

FFISS = DEFI_FOND_FISS(MAILLAGE = MAILLAGE,
                        FOND_FISS=_F(GROUP_MA='FONFIS'),
                       LEVRE_SUP=_F(GROUP_MA='LEVSUP'),
                       LEVRE_INF=_F(GROUP_MA='LEVINF'))

TABK = POST_K1_K2_K3(MODELISATION='3D',
                     FOND_FISS=FFISS,
                     MATER=MAT,
                     RESULTAT=RESU,
                     ABSC_CURV_MAXI=0.065,
                     TYPE_MAILLAGE='LIBRE',
                    )

IMPR_TABLE(TABLE=TABK)

#----------------------------------------------
#                   TEST
#----------------------------------------------

Kpt3 = 2.33861E+05

TEST_TABLE(
           VALE_CALC=2.338614037309E5,
           NOM_PARA='K1',
           TABLE=TABK,
           FILTRE=_F(NOM_PARA='NUM_PT',
                     VALE_I=3,),
           )

# on verifie que l'on trouve la meme valeur pour les points 1 et 2
TEST_TABLE(REFERENCE='AUTRE_ASTER',
           VALE_CALC= 2.33861404E+05,
           VALE_REFE=2.33861E5,
           NOM_PARA='K1',
           TABLE=TABK,
           FILTRE=_F(NOM_PARA='NUM_PT',
                     VALE_I=1,),
           )

TEST_TABLE(REFERENCE='AUTRE_ASTER',
           VALE_CALC= 2.33861404E+05,
           VALE_REFE=2.33861E5,
           NOM_PARA='K1',
           TABLE=TABK,
           FILTRE=_F(NOM_PARA='NUM_PT',
                     VALE_I=2,),
           )

FIN();
