# TITRE TEST INTERFACE ASTER-MISS3D ET ASTER-CADYRO
# ======================================================================
# COPYRIGHT (C) 1991 - 2012  EDF R&D                  WWW.CODE-ASTER.ORG
# THIS PROGRAM IS FREE SOFTWARE; YOU CAN REDISTRIBUTE IT AND/OR MODIFY
# IT UNDER THE TERMS OF THE GNU GENERAL PUBLIC LICENSE AS PUBLISHED BY
# THE FREE SOFTWARE FOUNDATION; EITHER VERSION 2 OF THE LICENSE, OR
# (AT YOUR OPTION) ANY LATER VERSION.
#
# THIS PROGRAM IS DISTRIBUTED IN THE HOPE THAT IT WILL BE USEFUL, BUT
# WITHOUT ANY WARRANTY; WITHOUT EVEN THE IMPLIED WARRANTY OF
# MERCHANTABILITY OR FITNESS FOR A PARTICULAR PURPOSE. SEE THE GNU
# GENERAL PUBLIC LICENSE FOR MORE DETAILS.
#
# YOU SHOULD HAVE RECEIVED A COPY OF THE GNU GENERAL PUBLIC LICENSE
# ALONG WITH THIS PROGRAM; IF NOT, WRITE TO EDF R&D CODE_ASTER,
#    1 AVENUE DU GENERAL DE GAULLE, 92141 CLAMART CEDEX, FRANCE.
# ======================================================================
# person_in_charge: Georges-cc.devesa at edf.fr
# ----------------------------------------------------------------------

DEBUT(CODE=_F(NOM='ZZZZ108A', NIV_PUB_WEB='INTERNET'), DEBUG=_F(SDVERI='NON'),)

MAIL0=LIRE_MAILLAGE(FORMAT='MED', );
MAILLAGE = CREA_MAILLAGE(MAILLAGE=MAIL0,
                  CREA_POI1 =_F(NOM_GROUP_MA = 'PC',
                                GROUP_NO = ('PC1','PC2'),
                                ),
                     );

STICKMOD=AFFE_MODELE(  MAILLAGE=MAILLAGE,AFFE=(
                      _F(  GROUP_MA = 'POU_D_T',PHENOMENE = 'MECANIQUE',
                             MODELISATION = 'POU_D_T'),
                           _F(  GROUP_MA = 'MASSES',  PHENOMENE = 'MECANIQUE',
                             MODELISATION = 'DIS_TR'),
                           _F(  GROUP_MA = 'PC',  PHENOMENE = 'MECANIQUE',
                             MODELISATION = 'DIS_T'),
                           _F(  GROUP_MA = 'LIAI_NOE',PHENOMENE = 'MECANIQUE',
                             MODELISATION = 'DIS_TR'),
                           _F(  GROUP_MA = 'VRADIER',PHENOMENE = 'MECANIQUE',
                             MODELISATION = '3D'),
                           _F(  GROUP_MA = 'SRADIER',PHENOMENE = 'MECANIQUE',
                             MODELISATION = 'DST'))
                        );

# ----------------------------------------------------------------------
#  DEFINITION DES MATERIAUX

MAT_1=DEFI_MATERIAU(  ELAS=_F(
                         E = 4.000000000E+10,NU = 0.15,
                         RHO = 0.000000000E+00,ALPHA = 0.000000000E+00) )

MAT_2=DEFI_MATERIAU(  ELAS=_F(
                         E = 4.000000000E+10,NU = 0.15,
                         RHO = 2.500000000E+03,ALPHA = 0.000000000E+00) )

MAT_3=DEFI_MATERIAU(  ELAS=_F(
                         E = 4.000000000E+10,NU = 0.15,
                         RHO = 2.500000000E+00,ALPHA = 0.000000000E+00) )

#

CHAMPMAT=AFFE_MATERIAU(   MAILLAGE=MAILLAGE,AFFE=(
                     _F(  GROUP_MA = 'MAT_1',    MATER = MAT_1),
                          _F(  GROUP_MA = 'MAT_2',    MATER = MAT_2),
                          _F(  GROUP_MA = 'VRADIER',   MATER = MAT_2),
                          _F(  GROUP_MA = 'SRADIER',   MATER = MAT_3))
                           )

#
# ----------------------------------------------------------------------
# AFFECTATION DES CARACTERISTIQUES ELEMENTAIRES

CARA_ELE=AFFE_CARA_ELEM( MODELE=STICKMOD,
            COQUE=_F( GROUP_MA = 'SRADIER', EPAIS = 0.001),POUTRE=(

          _F(  GROUP_MA = 'SEC_2',
             SECTION = 'GENERALE',
              CARA = ('A', 'IZ', 'IY', 'AY', 'AZ', 'JX',
                     'EZ', 'EY', 'RY', 'RZ', 'RT', ),
              VALE = ( 8.700000000E+01, 2.756900000E+04, 2.756900000E+04,
                      2.000000000E+00, 2.000000000E+00, 1.000000000E+07,
                      0.000000000E+00, 0.000000000E+00, 1.000000000E+00,
                      1.000000000E+00, 1.000000000E+00, )),
          _F(  GROUP_MA = 'SEC_3',
             SECTION = 'GENERALE',
              CARA = ('A', 'IZ', 'IY', 'AY', 'AZ', 'JX',
                     'EZ', 'EY', 'RY', 'RZ', 'RT', ),
              VALE = ( 1.696000000E+02, 4.294200000E+04, 4.294200000E+04,
                      2.000000000E+00, 2.000000000E+00, 1.000000000E+07,
                      0.000000000E+00, 0.000000000E+00, 1.000000000E+00,
                      1.000000000E+00, 1.000000000E+00, )),
          _F(  GROUP_MA = 'SEC_4',
             SECTION = 'GENERALE',
              CARA = ('A', 'IZ', 'IY', 'AY', 'AZ', 'JX',
                     'EZ', 'EY', 'RY', 'RZ', 'RT', ),
              VALE = ( 9.400000000E+01, 1.250000000E+04, 1.250000000E+04,
                      7.705000000E+01, 7.705000000E+01, 1.000000000E+07,
                      0.000000000E+00, 0.000000000E+00, 1.000000000E+00,
                      1.000000000E+00, 1.000000000E+00, )),
          _F(  GROUP_MA = 'SEC_5',
             SECTION = 'GENERALE',
              CARA = ('A', 'IZ', 'IY', 'AY', 'AZ', 'JX',
                     'EZ', 'EY', 'RY', 'RZ', 'RT', ),
              VALE = ( 4.852000000E+01, 6.522400000E+03, 6.142000000E+03,
                      5.720000000E+00, 3.540000000E+00, 1.000000000E+06,
                      0.000000000E+00, 0.000000000E+00, 1.000000000E+00,
                      1.000000000E+00, 1.000000000E+00, )),
          _F(  GROUP_MA = 'SEC_6',
             SECTION = 'GENERALE',
              CARA = ('A', 'IZ', 'IY', 'AY', 'AZ', 'JX',
                     'EZ', 'EY', 'RY', 'RZ', 'RT', ),
              VALE = ( 4.852000000E+01, 6.522400000E+03, 6.142000000E+03,
                      6.800000000E+00, 3.950000000E+00, 1.000000000E+06,
                      0.000000000E+00, 0.000000000E+00, 1.000000000E+00,
                      1.000000000E+00, 1.000000000E+00, )),
          _F(  GROUP_MA = 'SEC_7',
             SECTION = 'GENERALE',
              CARA = ('A', 'IZ', 'IY', 'AY', 'AZ', 'JX',
                     'EZ', 'EY', 'RY', 'RZ', 'RT', ),
              VALE = ( 2.328000000E+02, 1.095800000E+04, 2.128000000E+04,
                      4.950000000E+00, 1.870000000E+00, 1.000000000E+07,
                      0.000000000E+00, 0.000000000E+00, 1.000000000E+00,
                      1.000000000E+00, 1.000000000E+00, )),
          _F(  GROUP_MA = 'SEC_8',
             SECTION = 'GENERALE',
              CARA = ('A', 'IZ', 'IY', 'AY', 'AZ', 'JX',
                     'EZ', 'EY', 'RY', 'RZ', 'RT', ),
              VALE = ( 2.277000000E+02, 2.300000000E+04, 2.107900000E+04,
                      4.550000000E+00, 3.340000000E+00, 1.000000000E+07,
                      0.000000000E+00, 0.000000000E+00, 1.000000000E+00,
                      1.000000000E+00, 1.000000000E+00, )),
          _F(  GROUP_MA = 'SEC_9',
             SECTION = 'GENERALE',
              CARA = ('A', 'IZ', 'IY', 'AY', 'AZ', 'JX',
                     'EZ', 'EY', 'RY', 'RZ', 'RT', ),
              VALE = ( 1.490000000E+01, 1.900000000E+02, 1.500000000E+02,
                      1.860000000E+00, 1.770000000E+00, 1.000000000E+05,
                      0.000000000E+00, 0.000000000E+00, 1.000000000E+00,
                      1.000000000E+00, 1.000000000E+00, )),
          _F(  GROUP_MA = 'SEC_10',
             SECTION = 'GENERALE',
              CARA = ('A', 'IZ', 'IY', 'AY', 'AZ', 'JX',
                     'EZ', 'EY', 'RY', 'RZ', 'RT', ),
              VALE = ( 1.430000000E+01, 1.200000000E+02, 1.170000000E+02,
                      3.570000000E+00, 2.200000000E+00, 1.000000000E+05,
                      0.000000000E+00, 0.000000000E+00, 1.000000000E+00,
                      1.000000000E+00, 1.000000000E+00, )),
          _F(  GROUP_MA = 'SEC_11',
             SECTION = 'GENERALE',
              CARA = ('A', 'IZ', 'IY', 'AY', 'AZ', 'JX',
                     'EZ', 'EY', 'RY', 'RZ', 'RT', ),
              VALE = ( 5.348000000E+01, 5.486000000E+02, 5.486000000E+02,
                      7.640000000E+01, 7.640000000E+01, 1.000000000E+05,
                      0.000000000E+00, 0.000000000E+00, 1.000000000E+00,
                      1.000000000E+00, 1.000000000E+00, )),
          _F(  GROUP_MA = 'SEC_12',
             SECTION = 'GENERALE',
              CARA = ('A', 'IZ', 'IY', 'AY', 'AZ', 'JX',
                     'EZ', 'EY', 'RY', 'RZ', 'RT', ),
              VALE = ( 5.348000000E+01, 5.486000000E+02, 4.253000000E+02,
                      1.720000000E+00, 1.060000000E+00, 1.000000000E+05,
                      0.000000000E+00, 0.000000000E+00, 1.000000000E+00,
                      1.000000000E+00, 1.000000000E+00, )),
          _F(  GROUP_MA = 'SEC_13',
             SECTION = 'GENERALE',
              CARA = ('A', 'IZ', 'IY', 'AY', 'AZ', 'JX',
                     'EZ', 'EY', 'RY', 'RZ', 'RT', ),
              VALE = ( 4.521000000E+01, 3.261000000E+02, 3.261000000E+02,
                      1.370000000E+00, 1.370000000E+00, 1.000000000E+05,
                      0.000000000E+00, 0.000000000E+00, 1.000000000E+00,
                      1.000000000E+00, 1.000000000E+00, )),
          _F(  GROUP_MA = 'SEC_14',
             SECTION = 'GENERALE',
              CARA = ('A', 'IZ', 'IY', 'AY', 'AZ', 'JX',
                     'EZ', 'EY', 'RY', 'RZ', 'RT', ),
              VALE = ( 4.000000000E+01, 5.934000000E+02, 1.000000000E+00,
                      2.080000000E+00, 1.000000000E+03, 1.000000000E+05,
                      0.000000000E+00, 0.000000000E+00, 1.000000000E+00,
                      1.000000000E+00, 1.000000000E+00, ))),DISCRET=(
          #
            #MASSES ET INERTIES LOCALISEES
          _F(  MAILLE = 'MAS2',     CARA = 'M_TR_D_N',
              VALE = ( 9.768000000E+06, 1.484000000E+09, 1.484000000E+09,
                      0.000000000E+00, 0.000000000E+00, 0.000000000E+00,
                      0.000000000E+00, 0.000000000E+00, 0.000000000E+00,
                      0.000000000E+00, )),
          _F(  MAILLE = 'MAS2',     CARA = 'K_TR_D_N',
              VALE = (0.000000000E+00, 0.000000000E+00, 0.000000000E+00,
                      0.000000000E+00, 0.000000000E+00, 0.000000000E+00,)),
          _F(  MAILLE = 'MAS3',     CARA = 'M_TR_D_N',
              VALE = ( 2.827000000E+06, 9.359000000E+08, 9.359000000E+08,
                      0.000000000E+00, 0.000000000E+00, 0.000000000E+00,
                      0.000000000E+00, 0.000000000E+00, 0.000000000E+00,
                      0.000000000E+00, )),
          _F(  MAILLE = 'MAS3',     CARA = 'K_TR_D_N',
              VALE = (0.000000000E+00, 0.000000000E+00, 0.000000000E+00,
                      0.000000000E+00, 0.000000000E+00, 0.000000000E+00,)),
          _F(  MAILLE = 'MAS4',     CARA = 'M_TR_D_N',
              VALE = ( 2.827000000E+06, 9.359000000E+08, 9.359000000E+08,
                      0.000000000E+00, 0.000000000E+00, 0.000000000E+00,
                      0.000000000E+00, 0.000000000E+00, 0.000000000E+00,
                      0.000000000E+00, )),
          _F(  MAILLE = 'MAS4',     CARA = 'K_TR_D_N',
              VALE = (0.000000000E+00, 0.000000000E+00, 0.000000000E+00,
                      0.000000000E+00, 0.000000000E+00, 0.000000000E+00,)),
          _F(  MAILLE = 'MAS5',     CARA = 'M_TR_D_N',
              VALE = ( 1.921000000E+06, 6.176000000E+08, 6.176000000E+08,
                      0.000000000E+00, 0.000000000E+00, 0.000000000E+00,
                      0.000000000E+00, 0.000000000E+00, 0.000000000E+00,
                      0.000000000E+00, )),
          _F(  MAILLE = 'MAS5',     CARA = 'K_TR_D_N',
              VALE = (0.000000000E+00, 0.000000000E+00, 0.000000000E+00,
                      0.000000000E+00, 0.000000000E+00, 0.000000000E+00,)),
          _F(  MAILLE = 'MAS6',     CARA = 'M_TR_D_N',
              VALE = ( 2.175000000E+06, 7.074000000E+08, 7.074000000E+08,
                      0.000000000E+00, 0.000000000E+00, 0.000000000E+00,
                      0.000000000E+00, 0.000000000E+00, 0.000000000E+00,
                      0.000000000E+00, )),
          _F(  MAILLE = 'MAS6',     CARA = 'K_TR_D_N',
              VALE = (0.000000000E+00, 0.000000000E+00, 0.000000000E+00,
                      0.000000000E+00, 0.000000000E+00, 0.000000000E+00,)),
          _F(  MAILLE = 'MAS7',     CARA = 'M_TR_D_N',
              VALE = ( 2.729000000E+06, 9.008000000E+08, 9.008000000E+08,
                      0.000000000E+00, 0.000000000E+00, 0.000000000E+00,
                      0.000000000E+00, 0.000000000E+00, 0.000000000E+00,
                      0.000000000E+00, )),
          _F(  MAILLE = 'MAS8',     CARA = 'M_TR_D_N',
              VALE = ( 4.020000000E+06, 9.107000000E+08, 9.107000000E+08,
                      0.000000000E+00, 0.000000000E+00, 0.000000000E+00,
                      0.000000000E+00, 0.000000000E+00, 0.000000000E+00,
                      0.000000000E+00, )),
          _F(  MAILLE = 'MAS9',     CARA = 'M_TR_D_N',
              VALE = ( 3.554000000E+06, 8.840000000E+08, 8.840000000E+08,
                      1.768000000E+09, 0.000000000E+00, 0.000000000E+00,
                      0.000000000E+00, 0.000000000E+00, 0.000000000E+00,
                      0.000000000E+00, )),
          _F(  MAILLE = 'MAS10',    CARA = 'M_TR_D_N',
              VALE = ( 1.000000000E+00, 1.000000000E+00, 1.000000000E+00,
                      2.000000000E+00, 0.000000000E+00, 0.000000000E+00,
                      0.000000000E+00, 0.000000000E+00, 0.000000000E+00,
                      0.000000000E+00, )),
          _F(  MAILLE = 'MAS11',    CARA = 'M_TR_D_N',
              VALE = ( 2.098000000E+06, 5.200000000E+08, 5.200000000E+08,
                      1.040000000E+09, 0.000000000E+00, 0.000000000E+00,
                      0.000000000E+00, 0.000000000E+00, 0.000000000E+00,
                      0.000000000E+00, )),
          _F(  MAILLE = 'MAS12',    CARA = 'M_TR_D_N',
              VALE = ( 5.246000000E+06, 1.393000000E+09, 1.393000000E+09,
                      2.786000000E+09, 0.000000000E+00, 0.000000000E+00,
                      0.000000000E+00, 0.000000000E+00, 0.000000000E+00,
                      0.000000000E+00, )),
          _F(  MAILLE = 'MAS13',    CARA = 'M_TR_D_N',
              VALE = ( 5.858000000E+06, 1.525000000E+09, 1.525000000E+09,
                      3.050000000E+09, 0.000000000E+00, 0.000000000E+00,
                      0.000000000E+00, 0.000000000E+00, 0.000000000E+00,
                      0.000000000E+00, )),
          _F(  MAILLE = 'MAS14',    CARA = 'M_TR_D_N',
              VALE = ( 6.810000000E+06, 1.740000000E+09, 1.740000000E+09,
                      3.480000000E+09, 0.000000000E+00, 0.000000000E+00,
                      0.000000000E+00, 0.000000000E+00, 0.000000000E+00,
                      0.000000000E+00, )),
          _F(  MAILLE = 'MAS15',    CARA = 'M_TR_D_N',
              VALE = ( 1.000000000E+07, 2.020000000E+09, 2.020000000E+09,
                      4.040000000E+09, 0.000000000E+00, 0.000000000E+00,
                      0.000000000E+00, 0.000000000E+00, 0.000000000E+00,
                      0.000000000E+00, )),
          _F(  MAILLE = 'MAS16',    CARA = 'M_TR_D_N',
              VALE = ( 3.000000000E+05, 3.120000000E+07, 2.690000000E+07,
                      5.810000000E+07, 0.000000000E+00, 0.000000000E+00,
                      0.000000000E+00, 0.000000000E+00, 0.000000000E+00,
                      0.000000000E+00, )),
          _F(  MAILLE = 'MAS17',    CARA = 'M_TR_D_N',
              VALE = ( 2.750000000E+05, 5.700000000E+06, 3.500000000E+06,
                      9.200000000E+06, 0.000000000E+00, 0.000000000E+00,
                      0.000000000E+00, 0.000000000E+00, 0.000000000E+00,
                      0.000000000E+00, )),
          _F(  MAILLE = 'MAS18',    CARA = 'M_TR_D_N',
              VALE = ( 2.960000000E+06, 4.340000000E+08, 4.260000000E+08,
                      8.600000000E+08, 0.000000000E+00, 0.000000000E+00,
                      0.000000000E+00, 0.000000000E+00, 0.000000000E+00,
                      0.000000000E+00, )),
          _F(  MAILLE = 'MAS19',    CARA = 'M_TR_D_N',
              VALE = ( 1.130000000E+06, 3.620000000E+07, 3.190000000E+07,
                      6.810000000E+07, 0.000000000E+00, 0.000000000E+00,
                      0.000000000E+00, 0.000000000E+00, 0.000000000E+00,
                      0.000000000E+00, )),
          _F(  MAILLE = 'MAS20',    CARA = 'M_TR_D_N',
              VALE = ( 4.230000000E+06, 5.360000000E+08, 5.560000000E+08,
                      1.091000000E+09, 0.000000000E+00, 0.000000000E+00,
                      0.000000000E+00, 0.000000000E+00, 0.000000000E+00,
                      0.000000000E+00, )),
          _F(  MAILLE = 'MAS21',    CARA = 'M_TR_D_N',
              VALE = ( 3.260000000E+06, 5.390000000E+07, 6.750000000E+07,
                      1.214000000E+08, 0.000000000E+00, 0.000000000E+00,
                      0.000000000E+00, 0.000000000E+00, 0.000000000E+00,
                      0.000000000E+00, )),
          _F(  MAILLE = 'MAS22',    CARA = 'M_TR_D_N',
              VALE = ( 4.930000000E+06, 5.500000000E+08, 5.280000000E+08,
                      1.078000000E+09, 0.000000000E+00, 0.000000000E+00,
                      0.000000000E+00, 0.000000000E+00, 0.000000000E+00,
                      0.000000000E+00, )),
          _F(  MAILLE = 'MAS23',    CARA = 'M_TR_D_N',
              VALE = ( 1.890000000E+06, 1.700000000E+08, 1.000000000E+00,
                      1.700000000E+08, 0.000000000E+00, 0.000000000E+00,
                      0.000000000E+00, 0.000000000E+00, 0.000000000E+00,
                      0.000000000E+00, )),
          _F(  MAILLE = 'MAS24',    CARA = 'M_TR_D_N',
              VALE = ( 6.980000000E+06, 9.130000000E+08, 6.930000000E+08,
                      1.606000000E+09, 0.000000000E+00, 0.000000000E+00,
                      0.000000000E+00, 0.000000000E+00, 0.000000000E+00,
                      0.000000000E+00, )),
          _F(  MAILLE = 'MAS25',    CARA = 'M_TR_D_N',
              VALE = ( 3.800000000E+05, 1.000000000E+00, 1.000000000E+00,
                      1.000000000E+00, 0.000000000E+00, 0.000000000E+00,
                      0.000000000E+00, 0.000000000E+00, 0.000000000E+00,
                      0.000000000E+00, )),
          _F(  MAILLE = 'MAS26',    CARA = 'M_TR_D_N',
              VALE = ( 2.700000000E+05, 1.000000000E+00, 1.000000000E+00,
                      1.000000000E+00, 0.000000000E+00, 0.000000000E+00,
                      0.000000000E+00, 0.000000000E+00, 0.000000000E+00,
                      0.000000000E+00, )),
          _F(  MAILLE = 'MAS27',    CARA = 'M_TR_D_N',
              VALE = ( 1.000000000E+05, 1.000000000E+00, 1.000000000E+00,
                      1.000000000E+00, 0.000000000E+00, 0.000000000E+00,
                      0.000000000E+00, 0.000000000E+00, 0.000000000E+00,
                      0.000000000E+00, )),
          _F(  GROUP_MA = 'PC',    CARA = 'M_T_D_N',
              VALE = 0., ),
          # FIN DES CARACTERISTIQUES DES MASSES

            # LIAISONS SIMPLES NOEUD-NOEUD

          _F(  GROUP_MA = 'RLN_1',    CARA = 'K_TR_D_L',
            VALE = ( 1.000000000E+00, 1.320000000E+10, 7.080000000E+08,
                   1.424000000E+10, 1.000000000E+00, 1.000000000E+13,),
                  REPERE = 'GLOBAL'),
          _F(  GROUP_MA = 'RLN_2',    CARA = 'K_TR_D_L',
            VALE = ( 7.800000000E+10, 1.040000000E+11, 6.160000000E+09,
                   1.632000000E+11, 5.560000000E+10, 1.000000000E+14,),
                  REPERE = 'GLOBAL'),
          _F(  GROUP_MA = 'RLN_3',    CARA = 'K_TR_D_L',
            VALE = ( 1.692000000E+11, 1.840000000E+11, 1.872000000E+10,
                   7.600000000E+11, 1.800000000E+11, 1.000000000E+14,),
                  REPERE = 'GLOBAL'),
          _F(  GROUP_MA = 'RLN_4',    CARA = 'K_TR_D_L',
            VALE = ( 1.000000000E+16, 2.000000000E+11, 5.872000000E+10,
                   4.039000000E+12, 1.000000000E+16, 1.000000000E+14,),
                  REPERE = 'GLOBAL'),
          _F(  GROUP_MA = 'RLN_5',    CARA = 'K_TR_D_L',
            VALE = ( 1.900000000E+11, 1.900000000E+11, 2.000000000E+09,
                   5.000000000E+11, 5.000000000E+11, 1.000000000E+14,),
                  REPERE = 'GLOBAL'))
               )

# LA STRUCTURE EST RIGIDIFIEE A L INTERFACE
#------------------------------------------

COND_LIM=AFFE_CHAR_MECA(  MODELE=STICKMOD,LIAISON_SOLIDE=(
                   _F(  GROUP_NO = ('HRADIER',)),
                   _F(  GROUP_NO = ('SRADIER',))),
                       DDL_IMPO=(
                                 _F(  NOEUD = 'N98',
                                  DX = 0., DY = 0., DZ = 0.,
                                  DRX = 0., DRY = 0., DRZ = 0.),
                                 _F(  GROUP_NO = ('PC1','PC2',),
                                  DX = 0., DY = 0., DZ = 0., ),
                                 ),
                        );

#
# CALCUL DE LA MASSE ET INERTIES DE LA STRUCTURE -----------------------

MASSESTR=POST_ELEM(  MODELE=STICKMOD,
                         CHAM_MATER=CHAMPMAT,   CARA_ELEM=CARA_ELE,
                        MASS_INER=_F(  TOUT = 'OUI') )

#


# ----------------------------------------------------------------------

RIGI_ELE=CALC_MATR_ELEM(  MODELE=STICKMOD,  OPTION='RIGI_MECA',
                        CHARGE=COND_LIM,
                        CHAM_MATER=CHAMPMAT,  CARA_ELEM=CARA_ELE )

MASS_ELE=CALC_MATR_ELEM( MODELE=STICKMOD,  OPTION='MASS_MECA',
                        CHARGE=COND_LIM,
                        CHAM_MATER=CHAMPMAT,  CARA_ELEM=CARA_ELE )

#

NUMEDDL=NUME_DDL(  MATR_RIGI=RIGI_ELE )

RIGIDITE=ASSE_MATRICE(  MATR_ELEM=RIGI_ELE,  NUME_DDL=NUMEDDL )

MASSE=ASSE_MATRICE(  MATR_ELEM=MASS_ELE,  NUME_DDL=NUMEDDL )

CHA1=AFFE_CHAR_MECA(  MODELE=STICKMOD,
                             FORCE_NODALE=_F(  NOEUD = 'N1500',
                                            FX = 1.0E4)  )

VEC1_ELE=CALC_VECT_ELEM(  OPTION='CHAR_MECA',
                              CHAM_MATER=CHAMPMAT,
                              CARA_ELEM=CARA_ELE,
                              CHARGE=CHA1                      )

VECAS1=ASSE_VECTEUR(  VECT_ELEM=VEC1_ELE,  NUME_DDL=NUMEDDL )

#
# CALCUL DES MODES :
#---------------------------------------------

MODE=MODE_ITER_SIMULT(  MATR_RIGI=RIGIDITE,   MATR_MASS=MASSE,
                           CALC_FREQ=_F(  NMAX_FREQ = 30)
                         )


#
# CALCUL DU MACRO-ELEMENT DYNAMIQUE :
#---------------------------------------------

INTERDYN=DEFI_INTERF_DYNA(  NUME_DDL=NUMEDDL,
            INTERFACE=_F( NOM = 'DROITE',
                       TYPE = 'CRAIGB',
                       NOEUD = 'N98')
           )

BAMO=DEFI_BASE_MODALE(   CLASSIQUE=_F( INTERF_DYNA = INTERDYN,
                                      MODE_MECA = MODE,
                                      NMAX_MODE = 30)
       )

MAEL=MACR_ELEM_DYNA(  BASE_MODALE=BAMO)

NDDLGEN = NUME_DDL_GENE( BASE= BAMO,
                          STOCKAGE= 'PLEIN',);

RIGIGEN=PROJ_MATR_BASE(  BASE=BAMO,  NUME_DDL_GENE=NDDLGEN,
                            MATR_ASSE=RIGIDITE );

MASSGEN=PROJ_MATR_BASE(  BASE=BAMO,  NUME_DDL_GENE=NDDLGEN,
                            MATR_ASSE=MASSE );

VECGE1=PROJ_VECT_BASE(  BASE=BAMO,  NUME_DDL_GENE=NDDLGEN,
                            VECT_ASSE=VECAS1 );

#
FO1=DEFI_FONCTION(   NOM_PARA='FREQ',
          VALE=( 0., 1., 100., 1., ) )

#  LECTURE DE L ACCELEROGRAMME DE SOL ACCE

INCLUDE(   UNITE=11 )

#
# PRE-TRAITEMENT DE MISS3D:
#--------------------------
# MAILLAGE ET IMPEDANCES D INTERFACE
#
IMPR_MACR_ELEM(  MACR_ELEM_DYNA=MAEL,
          FORMAT='MISS_3D',
          SOUS_TITRE='RADIER RIGIDE',
          IMPR_MODE_MECA='OUI',
              AMOR_REDUIT=(0.07,                    ),
              GROUP_MA_INTERF=('SRADIER',),
          FORMAT_R='1PE12.5',
          )

# FORCE HARMONIQUE HORIZONTALE AU SOMMET DE LA STRUCTURE
#
IMPR_MISS_3D(  MACR_ELEM_DYNA=MAEL,
              FREQ_INIT=0.,  FREQ_FIN=10.,  PAS=0.1,
              EXCIT=_F( VECT_ASSE = VECAS1, FONC_MULT = FO1)
          )

# ACCELERATION TRANSITOIRE HORIZONTALE DANS LE SOL
#
IMPR_MISS_3D(  MACR_ELEM_DYNA=MAEL,
              INST_INIT=0.,  INST_FIN=10.,  PAS=0.01,
              EXCIT_SOL=_F( DIRECTION = (1., 0., 0.,), NOM_CHAM = 'ACCE',
                         FONC_SIGNAL = ACCE)
          )

#
#--------------------------------------------------------------
# ON APPELLE ENSUITE MISS3D PUIS ON ENCHAINE AVEC LIRE_MISS_3D:
#--------------------------------------------------------------
DYNA=LIRE_MISS_3D( MACR_ELEM_DYNA=MAEL,
              TYPE_RESU='HARMO',
              TITRE='HARMO BAT'
                    )

#
DYNH=LIRE_MISS_3D( MACR_ELEM_DYNA=MAEL,
              TYPE_RESU='TRANS',
              TITRE='TRANS BAT',
              UNITE=28
                    )
IMPR_RESU(RESU=_F(RESULTAT=DYNH,NOM_CHAM='VITE',NUME_ORDRE=2,GROUP_MA='MASSES'),)
IMPR_RESU(FORMAT='MED',RESU=_F(RESULTAT=DYNH,NOM_CHAM='VITE',NUME_ORDRE=2,GROUP_MA='MASSES'),)

# PRE-TRAITEMENT DE MISS3D (UNITE 31):
#-------------------------------------
# MAILLAGE ET IMPEDANCES D INTERFACE
#
IMPR_MACR_ELEM(  MACR_ELEM_DYNA=MAEL,
          FORMAT='MISS_3D',
          SOUS_TITRE='RADIER RIGIDE',
          IMPR_MODE_STAT='OUI',
          IMPR_MODE_MECA='NON',
              AMOR_REDUIT=(0.07,                    ),
              GROUP_MA_INTERF=('SRADIER',),
          UNITE=31,
          FORMAT_R='1PE12.5',
          )

# FORCE HARMONIQUE HORIZONTALE AU SOMMET DE LA STRUCTURE
#
IMPR_MISS_3D(  MACR_ELEM_DYNA=MAEL,
              FREQ_INIT=0.,  FREQ_FIN=10.,  PAS=0.1,
              EXCIT=_F( VECT_ASSE = VECAS1, FONC_MULT = FO1),
              UNITE=31
          )

# ACCELERATION HARMONIQUE HORIZONTALE DANS LE SOL
#
IMPR_MISS_3D(  MACR_ELEM_DYNA=MAEL,
              FREQ_INIT=0.,  FREQ_FIN=10.,  PAS=0.1,
              EXCIT_SOL=_F( DIRECTION = (1., 0., 0.,), NOM_CHAM = 'ACCE',
                         FONC_SIGNAL = FO1),
              UNITE=31
          )

# TRAITEMENT DE MISS3D PAR EXEC_LOGICIEL
#---------------------------------------
MACRO_MISS_3D( OPTION=_F( TOUT = 'OUI'),
               PROJET='ZZZZ108A',
               REPERTOIRE='./ZZZZ108A',
               VERSION='V1_4',
               UNITE_IMPR_ASTER=31,
               UNITE_OPTI_MISS=23,
               UNITE_MODELE_SOL=24,
               PARAMETRE=_F(
               FREQ_MIN=3.9,
               FREQ_MAX=5.7,
               FREQ_PAS=0.9,
               Z0=-6.05,
               SURF='OUI',
               #CONTR_NB=2,
               #CONTR_LISTE=(0, 0, -6, 30, 0, -6),
               FICH_RESU_IMPE='../fort.32',
               FICH_RESU_FORC='../fort.33',
               # DREF='5.',
               # ALGO = 'DEPL',
               OFFSET_MAX=60,
               OFFSET_NB=400,
               SPEC_MAX=0.03,
               SPEC_NB=2048,
              ),
             )

DEFI_FICHIER(ACTION='LIBERER',UNITE=32,);
DEFI_FICHIER(ACTION='LIBERER',UNITE=33,);

EVOL=LIRE_MISS_3D( MACR_ELEM_DYNA=MAEL,
                   TYPE_RESU='HARMO',
                   TITRE='HARMO BAT',
                   UNITE= 29,
                   NOM  = 'ZZZZ108A.01.h'
                    )
EVOL2=LIRE_MISS_3D( MACR_ELEM_DYNA=MAEL,
                   TYPE_RESU='HARMO',
                   TITRE='HARMO BAT',
                   UNITE= 34,
                   NOM  = 'ZZZZ108A.02.h'
                    )

impe=[None]*4
rito=[None]*4
fosi=[None]*4
fosi2=[None]*4
fosi3=[None]*4

for k in range(1,4):

  impe[k] = LIRE_IMPE_MISS(BASE=BAMO,  NUME_DDL_GENE=NDDLGEN,
                       UNITE_RESU_IMPE=32, FREQ_EXTR=3.+0.9*k,);

  rito[k]=COMB_MATR_ASSE(COMB_C=(
                                _F(MATR_ASSE=impe[k],
                                 COEF_C=1.0+0.j,),
                                _F(MATR_ASSE=RIGIGEN,
                                 COEF_C=1.0+0.j,),
                                 ),
                                 SANS_CMP='LAGR',
                                 );

  fosi[k] = LIRE_FORC_MISS(BASE=BAMO,  NUME_DDL_GENE=NDDLGEN,
                       NOM_CMP='DX',NOM_CHAM='ACCE',
                       UNITE_RESU_FORC=33, FREQ_EXTR=3.+0.9*k,);

  fosi2[k] = LIRE_FORC_MISS(BASE=BAMO,  NUME_DDL_GENE=NDDLGEN,
                       NOM_CMP='DX',NOM_CHAM='VITE',
                       UNITE_RESU_FORC=33, FREQ_EXTR=3.+0.9*k,);

  fosi3[k] = LIRE_FORC_MISS(BASE=BAMO,  NUME_DDL_GENE=NDDLGEN,
                       NOM_CMP='DX',NOM_CHAM='DEPL',
                       UNITE_RESU_FORC=33, FREQ_EXTR=3.+0.9*k,);

  if k==1:
    dyge = DYNA_VIBRA(TYPE_CALCUL='HARM',BASE_CALCUL='GENE',
                          MATR_MASS = MASSGEN,
                          MATR_RIGI = rito[k],
                          SOLVEUR=_F( METHODE='LDLT', ),
                          AMOR_MODAL=_F(AMOR_REDUIT= (0.07,0.07,
                                        0.07,0.07,0.07,
                                        0.07,0.07,0.07,0.07,0.07,
                                        0.07,0.07,0.07,0.07,0.07,
                                        0.07,0.07,0.07,0.07,0.07,
                                        0.07,0.07,0.07,0.07,0.07,
                                        0.07,0.07,0.07,0.07,0.07,
                                        0.0,),),
                          FREQ = 3.+0.9*k,
                          EXCIT =_F ( VECT_ASSE_GENE = VECGE1,
                                      COEF_MULT= 1.,
                                  ),
                        );


    dyge2 = DYNA_VIBRA(TYPE_CALCUL='HARM',BASE_CALCUL='GENE',
                          MATR_MASS = MASSGEN,
                          MATR_RIGI = rito[k],
                          SOLVEUR=_F( METHODE='LDLT', ),
                          FREQ = 3.+0.9*k,
                          AMOR_MODAL=_F(AMOR_REDUIT= (0.07,0.07,
                                        0.07,0.07,0.07,
                                        0.07,0.07,0.07,0.07,0.07,
                                        0.07,0.07,0.07,0.07,0.07,
                                        0.07,0.07,0.07,0.07,0.07,
                                        0.07,0.07,0.07,0.07,0.07,
                                        0.07,0.07,0.07,0.07,0.07,
                                        0.0,),),
                          EXCIT =_F ( VECT_ASSE_GENE = fosi[k],
                                      COEF_MULT= 1.,
                                  ),
                        );


    dyge3 = DYNA_VIBRA(TYPE_CALCUL='HARM',BASE_CALCUL='GENE',
                          MATR_MASS = MASSGEN,
                          MATR_RIGI = rito[k],
                          SOLVEUR=_F( METHODE='LDLT', ),
                          FREQ = 3.+0.9*k,
                          AMOR_MODAL=_F(AMOR_REDUIT= (0.07,0.07,
                                        0.07,0.07,0.07,
                                        0.07,0.07,0.07,0.07,0.07,
                                        0.07,0.07,0.07,0.07,0.07,
                                        0.07,0.07,0.07,0.07,0.07,
                                        0.07,0.07,0.07,0.07,0.07,
                                        0.07,0.07,0.07,0.07,0.07,
                                        0.0,),),
                          EXCIT =_F ( VECT_ASSE_GENE = fosi2[k],
                                      COEF_MULT= 1.,
                                  ),
                        );


    dyge4 = DYNA_VIBRA(TYPE_CALCUL='HARM',BASE_CALCUL='GENE',
                          MATR_MASS = MASSGEN,
                          MATR_RIGI = rito[k],
                          SOLVEUR=_F( METHODE='LDLT', ),
                          FREQ = 3.+0.9*k,
                          AMOR_MODAL=_F(AMOR_REDUIT= (0.07,0.07,
                                        0.07,0.07,0.07,
                                        0.07,0.07,0.07,0.07,0.07,
                                        0.07,0.07,0.07,0.07,0.07,
                                        0.07,0.07,0.07,0.07,0.07,
                                        0.07,0.07,0.07,0.07,0.07,
                                        0.07,0.07,0.07,0.07,0.07,
                                        0.0,),),
                          EXCIT =_F ( VECT_ASSE_GENE = fosi3[k],
                                      COEF_MULT= 1.,
                                  ),
                        );

  else:
    dyge = DYNA_VIBRA(TYPE_CALCUL='HARM',BASE_CALCUL='GENE',
                          reuse=dyge, RESULTAT=dyge,
                          MATR_MASS = MASSGEN,
                          MATR_RIGI = rito[k],
                          SOLVEUR=_F( METHODE='LDLT', ),
                          AMOR_MODAL=_F(AMOR_REDUIT= (0.07,0.07,
                                        0.07,0.07,0.07,
                                        0.07,0.07,0.07,0.07,0.07,
                                        0.07,0.07,0.07,0.07,0.07,
                                        0.07,0.07,0.07,0.07,0.07,
                                        0.07,0.07,0.07,0.07,0.07,
                                        0.07,0.07,0.07,0.07,0.07,
                                        0.0,),),
                          FREQ = 3.+0.9*k,
                          EXCIT =_F ( VECT_ASSE_GENE = VECGE1,
                                      COEF_MULT= 1.,
                                  ),
                        );


    dyge2 = DYNA_VIBRA(TYPE_CALCUL='HARM',BASE_CALCUL='GENE',
                          reuse=dyge2, RESULTAT=dyge2,
                          MATR_MASS = MASSGEN,
                          MATR_RIGI = rito[k],
                          SOLVEUR=_F( METHODE='LDLT', ),
                          FREQ = 3.+0.9*k,
                          AMOR_MODAL=_F(AMOR_REDUIT= (0.07,0.07,
                                        0.07,0.07,0.07,
                                        0.07,0.07,0.07,0.07,0.07,
                                        0.07,0.07,0.07,0.07,0.07,
                                        0.07,0.07,0.07,0.07,0.07,
                                        0.07,0.07,0.07,0.07,0.07,
                                        0.07,0.07,0.07,0.07,0.07,
                                        0.0,),),
                          EXCIT =_F ( VECT_ASSE_GENE = fosi[k],
                                      COEF_MULT= 1.,
                                  ),
                        );


    dyge3 = DYNA_VIBRA(TYPE_CALCUL='HARM',BASE_CALCUL='GENE',
                          reuse=dyge3, RESULTAT=dyge3,
                          MATR_MASS = MASSGEN,
                          MATR_RIGI = rito[k],
                          SOLVEUR=_F( METHODE='LDLT', ),
                          FREQ = 3.+0.9*k,
                          AMOR_MODAL=_F(AMOR_REDUIT= (0.07,0.07,
                                        0.07,0.07,0.07,
                                        0.07,0.07,0.07,0.07,0.07,
                                        0.07,0.07,0.07,0.07,0.07,
                                        0.07,0.07,0.07,0.07,0.07,
                                        0.07,0.07,0.07,0.07,0.07,
                                        0.07,0.07,0.07,0.07,0.07,
                                        0.0,),),
                          EXCIT =_F ( VECT_ASSE_GENE = fosi2[k],
                                      COEF_MULT= 1.,
                                  ),
                        );

    dyge4 = DYNA_VIBRA(TYPE_CALCUL='HARM',BASE_CALCUL='GENE',
                          reuse=dyge4, RESULTAT=dyge4,
                          MATR_MASS = MASSGEN,
                          MATR_RIGI = rito[k],
                          SOLVEUR=_F( METHODE='LDLT', ),
                          FREQ = 3.+0.9*k,
                          AMOR_MODAL=_F(AMOR_REDUIT= (0.07,0.07,
                                        0.07,0.07,0.07,
                                        0.07,0.07,0.07,0.07,0.07,
                                        0.07,0.07,0.07,0.07,0.07,
                                        0.07,0.07,0.07,0.07,0.07,
                                        0.07,0.07,0.07,0.07,0.07,
                                        0.07,0.07,0.07,0.07,0.07,
                                        0.0,),),
                          EXCIT =_F ( VECT_ASSE_GENE = fosi3[k],
                                      COEF_MULT= 1.,
                                  ),
                        );

dyha = REST_GENE_PHYS (RESU_GENE = dyge,
                            NOM_CHAM='DEPL',
                     );

dyha2 = REST_GENE_PHYS(RESU_GENE = dyge2,
                            NOM_CHAM='ACCE',
                     );

dyha3 = REST_GENE_PHYS (RESU_GENE = dyge3,
                            NOM_CHAM='VITE',
                     );

dyha4 = REST_GENE_PHYS (RESU_GENE = dyge4,
                            NOM_CHAM='DEPL',
                     );

# PRE-TRAITEMENT DE MISS3D (UNITE 38):
#-------------------------------------
# MAILLAGE ET IMPEDANCES D INTERFACE
#
IMPR_MACR_ELEM(  MACR_ELEM_DYNA=MAEL,
          FORMAT='MISS_3D',
          SOUS_TITRE='RADIER RIGIDE',
          IMPR_MODE_STAT='OUI',
          IMPR_MODE_MECA='NON',
              AMOR_REDUIT=(0.07,                    ),
              GROUP_MA_INTERF=('SRADIER',),
              GROUP_MA_CONTROL=('PC'),
          UNITE=38,
          FORMAT_R='1PE12.5',
          );


# ACCELERATION HARMONIQUE HORIZONTALE DANS LE SOL
#
IMPR_MISS_3D(  MACR_ELEM_DYNA=MAEL,
              FREQ_INIT=0.,  FREQ_FIN=10.,  PAS=0.1,
              EXCIT_SOL=(
                         _F( DIRECTION = (1., 0., 0.,), NOM_CHAM = 'ACCE',
                            FONC_SIGNAL = FO1),
                         _F( DIRECTION = (0., 1., 0.,), NOM_CHAM = 'ACCE',
                            FONC_SIGNAL = FO1),
                        ),
              UNITE=38
          );


# TRAITEMENT DE MISS3D PAR EXEC_LOGICIEL
#---------------------------------------
MACRO_MISS_3D(
               OPTION=_F( TOUT = 'OUI'),
               PROJET='ZZZZ108B',
               REPERTOIRE='./ZZZZ108A',
               VERSION='V1_4',
               UNITE_IMPR_ASTER=38,
               UNITE_OPTI_MISS=21,
               UNITE_MODELE_SOL=22,
             );

MODESTAX=MODE_STATIQUE(  MATR_RIGI=RIGIDITE,
                     MODE_STAT=_F(
                     GROUP_NO = ('PC1', 'PC2',),
                     AVEC_CMP = ('DX',),
                                 ));

MODESTAY=MODE_STATIQUE(  MATR_RIGI=RIGIDITE,
                     MODE_STAT=_F(
                     GROUP_NO = ('PC1', 'PC2',),
                     AVEC_CMP = ('DY',),
                                 ));
IMPR_RESU(RESU=_F(RESULTAT=MODESTAY,NUME_ORDRE=1),)
IMPR_RESU(FORMAT='MED',RESU=_F(RESULTAT=MODESTAY,NUME_ORDRE=1),)

MODESTAZ=MODE_STATIQUE(  MATR_RIGI=RIGIDITE,
                     MODE_STAT=_F(
                     GROUP_NO = ('PC1', 'PC2',),
                     AVEC_CMP = ('DZ',),
                                 ));


BAMO=DEFI_BASE_MODALE( reuse=BAMO,
                    RITZ=( _F( BASE_MODALE=BAMO),
                           _F( MODE_INTF = MODESTAX,
                                     NMAX_MODE = 999)),
                         NUME_REF=NUMEDDL);

BAMO=DEFI_BASE_MODALE( reuse=BAMO,
                    RITZ=( _F( BASE_MODALE=BAMO),
                           _F( MODE_INTF = MODESTAY,
                                     NMAX_MODE = 999)),
                         NUME_REF=NUMEDDL);

BAMO=DEFI_BASE_MODALE( reuse=BAMO,
                    RITZ=( _F( BASE_MODALE=BAMO),
                           _F( MODE_INTF = MODESTAZ,
                                     NMAX_MODE = 999)),
                         NUME_REF=NUMEDDL);



#---------------------------------------------------------------
# ON DETRUIT LE MACR_ELEM, ET ON LE RECREE AVEC LA NOUVELLE BASE
#---------------------------------------------------------------

DETRUIRE (CONCEPT = _F( NOM=MAEL,) ,);

MAEL=MACR_ELEM_DYNA(  BASE_MODALE=BAMO,
                      MATR_RIGI=RIGIDITE,
                      MATR_MASS=MASSE,);



#--------------------------------------------------------------
# ON APPELLE ENSUITE MISS3D PUIS ON ENCHAINE AVEC LIRE_MISS_3D:
#--------------------------------------------------------------
DYNB=LIRE_MISS_3D( MACR_ELEM_DYNA=MAEL,
              TYPE_RESU='HARMO',
              TITRE='REPON BAT',
              UNITE=37,
              NOM = 'ZZZZ108B.01.h',
                    );

IMPR_RESU( RESU=_F(RESULTAT=DYNB, GROUP_NO=('PC1', 'PC2',),
                   FREQ=(3.9, 4.8, 5.7),
                   ), );

#
# EXTRACTIONS ET TESTS:
#----------------------
#
TEST_RESU(RESU=(_F(VALE_CALC_C=(1.3251281678416E-06-7.349194767281E-06j),
                   RESULTAT=DYNA,
                   NOM_CHAM='DEPL',
                   NOEUD='N1500',
                   NOM_CMP='DX',
                   FREQ=3.8999999999999999,
                   ),
                _F(VALE_CALC_C=(-1.5999476542726E-07-5.6057997891304E-06j),
                   RESULTAT=DYNA,
                   NOM_CHAM='DEPL',
                   NOEUD='N800',
                   NOM_CMP='DX',
                   FREQ=3.8999999999999999,
                   ),
                _F(VALE_CALC_C=(-9.079630352076E-07+2.6259725821907E-06j),
                   RESULTAT=DYNA,
                   NOM_CHAM='DEPL',
                   NOEUD='N800',
                   NOM_CMP='DX',
                   FREQ=4.7999999999999998,
                   ),
                _F(VALE_CALC_C=(3.4587537880759E-07-3.1065675329062E-06j),
                   RESULTAT=DYNA,
                   NOM_CHAM='DEPL',
                   NOEUD='N2700',
                   NOM_CMP='DX',
                   FREQ=3.8999999999999999,
                   ),
                _F(VALE_CALC_C=(-9.7866560516567E-08+1.1935120365403E-06j),
                   RESULTAT=DYNA,
                   NOM_CHAM='DEPL',
                   NOEUD='N2700',
                   NOM_CMP='DX',
                   FREQ=7.5,
                   ),
                _F(INST=3.1499999999999999,
                   RESULTAT=DYNH,
                   NOM_CHAM='ACCE',
                   NOEUD='N1500',
                   NOM_CMP='DX',
                   VALE_CALC=10.813643448555,
                   ),
                _F(INST=3.1499999999999999,
                   RESULTAT=DYNH,
                   NOM_CHAM='ACCE',
                   NOEUD='N800',
                   NOM_CMP='DX',
                   VALE_CALC=9.6833923977867,
                   ),
                _F(INST=1.3500000000000001,
                   RESULTAT=DYNH,
                   NOM_CHAM='ACCE',
                   NOEUD='N2700',
                   NOM_CMP='DX',
                   VALE_CALC=16.664831391379,
                   ),
                _F(INST=3.1000000000000001,
                   RESULTAT=DYNH,
                   NOM_CHAM='ACCE',
                   NOEUD='N98',
                   NOM_CMP='DX',
                   VALE_CALC=2.5558299999999998,
                   ),
                _F(INST=4.0599999999999996,
                   RESULTAT=DYNH,
                   NOM_CHAM='ACCE',
                   NOEUD='N98',
                   NOM_CMP='DX',
                   VALE_CALC=-2.6492900000000001,
                   ),
                ),
          )

TEST_RESU(RESU=(_F(VALE_CALC_C=(9.7636257067923E-07-5.37211364501E-06j),
                   RESULTAT=EVOL,
                   NOM_CHAM='DEPL',
                   NOEUD='N1500',
                   NOM_CMP='DX',
                   FREQ=3.8999999999999999,
                   ),
                _F(VALE_CALC_C=(-5.8221345079405E-07-3.9483437763771E-06j),
                   RESULTAT=EVOL,
                   NOM_CHAM='DEPL',
                   NOEUD='N800',
                   NOM_CMP='DX',
                   FREQ=3.8999999999999999,
                   ),
                _F(VALE_CALC_C=(-8.3228649083883E-07+2.5398090490507E-06j),
                   RESULTAT=EVOL,
                   NOM_CHAM='DEPL',
                   NOEUD='N800',
                   NOM_CMP='DX',
                   FREQ=4.7999999999999998,
                   ),
                _F(VALE_CALC_C=(9.8531719565541E-08-2.2458983564185E-06j),
                   RESULTAT=EVOL,
                   NOM_CHAM='DEPL',
                   NOEUD='N2700',
                   NOM_CMP='DX',
                   FREQ=3.8999999999999999,
                   ),
                ),
          )

TEST_RESU(RESU=(_F(VALE_CALC_C=(9.7614876380268E-07-5.3721764160531E-06j),
                   RESULTAT=dyha,
                   NOM_CHAM='DEPL',
                   NOEUD='N1500',
                   NOM_CMP='DX',
                   FREQ=3.8999999999999999,
                   ),
                _F(VALE_CALC_C=(-5.8238946319641E-07-3.9483812575651E-06j),
                   RESULTAT=dyha,
                   NOM_CHAM='DEPL',
                   NOEUD='N800',
                   NOM_CMP='DX',
                   FREQ=3.8999999999999999,
                   ),
                _F(VALE_CALC_C=(-8.322831106442E-07+2.5398057515351E-06j),
                   RESULTAT=dyha,
                   NOM_CHAM='DEPL',
                   NOEUD='N800',
                   NOM_CMP='DX',
                   FREQ=4.7999999999999998,
                   ),
                _F(VALE_CALC_C=(9.8438670711402E-08-2.2459303709739E-06j),
                   RESULTAT=dyha,
                   NOM_CHAM='DEPL',
                   NOEUD='N2700',
                   NOM_CMP='DX',
                   FREQ=3.8999999999999999,
                   ),
                _F(NUME_ORDRE=3,
                   VALE_CALC_C=(-6.1964345362635E-07+4.003070541139E-08j),
                   RESULTAT=dyha,
                   NOM_CHAM='DEPL',
                   NOEUD='N2700',
                   NOM_CMP='DX',
                   ),
                ),
          )


TEST_RESU(RESU=(_F(VALE_CALC_C=(1.8962267586346-11.597002387432j ),
                   RESULTAT=EVOL2,
                   NOM_CHAM='ACCE',
                   NOEUD='N1500',
                   NOM_CMP='DX',
                   FREQ=3.8999999999999999,
                   ),
                _F(VALE_CALC_C=(2.1446907345935-9.6634466542773j),
                   RESULTAT=EVOL2,
                   NOM_CHAM='ACCE',
                   NOEUD='N800',
                   NOM_CMP='DX',
                   FREQ=3.8999999999999999,
                   ),
                _F(VALE_CALC_C=(-2.6244594410394-1.8464164629739j),
                   RESULTAT=EVOL2,
                   NOM_CHAM='ACCE',
                   NOEUD='N800',
                   NOM_CMP='DX',
                   FREQ=4.7999999999999998,
                   ),
                _F(VALE_CALC_C=(1.9307001299909-5.0629086211591j),
                   RESULTAT=EVOL2,
                   NOM_CHAM='ACCE',
                   NOEUD='N2700',
                   NOM_CMP='DX',
                   FREQ=3.8999999999999999,
                   ),
                ),
          )

TEST_RESU(RESU=(_F(VALE_CALC_C=(1.8957513436246-11.597126194839j),
                   RESULTAT=dyha2,
                   NOM_CHAM='ACCE',
                   NOEUD='N1500',
                   NOM_CMP='DX',
                   FREQ=3.8999999999999999,
                   ),
                _F(VALE_CALC_C=(2.1443016708131-9.6635163997171j),
                   RESULTAT=dyha2,
                   NOM_CHAM='ACCE',
                   NOEUD='N800',
                   NOM_CMP='DX',
                   FREQ=3.8999999999999999,
                   ),
                _F(VALE_CALC_C=(-2.6244311790407-1.8464380228017j),
                   RESULTAT=dyha2,
                   NOM_CHAM='ACCE',
                   NOEUD='N800',
                   NOM_CMP='DX',
                   FREQ=4.7999999999999998,
                   ),
                _F(VALE_CALC_C=(1.9304977719541-5.062969367779j),
                   RESULTAT=dyha2,
                   NOM_CHAM='ACCE',
                   NOEUD='N2700',
                   NOM_CMP='DX',
                   FREQ=3.8999999999999999,
                   ),
                _F(NUME_ORDRE=3,
                   VALE_CALC_C=(1.686537536013-0.79353357459910j),
                   RESULTAT=dyha2,
                   NOM_CHAM='ACCE',
                   NOEUD='N2700',
                   NOM_CMP='DX',
                   ),
                ),
          )


TEST_RESU(RESU=(_F(VALE_CALC_C=(1.8957513436246-11.597126194839j),
                   RESULTAT=dyha3,
                   NOM_CHAM='VITE',
                   NOEUD='N1500',
                   NOM_CMP='DX',
                   FREQ=3.8999999999999999,
                   ),
                _F(VALE_CALC_C=(2.1443016708131-9.6635163997171j),
                   RESULTAT=dyha3,
                   NOM_CHAM='VITE',
                   NOEUD='N800',
                   NOM_CMP='DX',
                   FREQ=3.8999999999999999,
                   ),
                _F(VALE_CALC_C=(-2.6244311790407-1.8464380228017j),
                   RESULTAT=dyha3,
                   NOM_CHAM='VITE',
                   NOEUD='N800',
                   NOM_CMP='DX',
                   FREQ=4.7999999999999998,
                   ),
                _F(VALE_CALC_C=(1.9304977719541-5.062969367779j),
                   RESULTAT=dyha3,
                   NOM_CHAM='VITE',
                   NOEUD='N2700',
                   NOM_CMP='DX',
                   FREQ=3.8999999999999999,
                   ),
                _F(NUME_ORDRE=3,
                   VALE_CALC_C=(1.686537536013-0.79353357459910j),
                   RESULTAT=dyha3,
                   NOM_CHAM='VITE',
                   NOEUD='N2700',
                   NOM_CMP='DX',
                   ),
                ),
          )

TEST_RESU(RESU=(_F(VALE_CALC_C=(1.8957513436246-11.597126194839j),
                   RESULTAT=dyha4,
                   NOM_CHAM='DEPL',
                   NOEUD='N1500',
                   NOM_CMP='DX',
                   FREQ=3.8999999999999999,
                   ),
                _F(VALE_CALC_C=(2.1443016708131-9.6635163997171j),
                   RESULTAT=dyha4,
                   NOM_CHAM='DEPL',
                   NOEUD='N800',
                   NOM_CMP='DX',
                   FREQ=3.8999999999999999,
                   ),
                _F(VALE_CALC_C=(-2.6244311790407-1.8464380228017j),
                   RESULTAT=dyha4,
                   NOM_CHAM='DEPL',
                   NOEUD='N800',
                   NOM_CMP='DX',
                   FREQ=4.7999999999999998,
                   ),
                _F(VALE_CALC_C=(1.9304977719542-5.062969367779j),
                   RESULTAT=dyha4,
                   NOM_CHAM='DEPL',
                   NOEUD='N2700',
                   NOM_CMP='DX',
                   FREQ=3.8999999999999999,
                   ),
                _F(NUME_ORDRE=3,
                   VALE_CALC_C=(1.686537536013-0.79353357459910j),
                   RESULTAT=dyha4,
                   NOM_CHAM='DEPL',
                   NOEUD='N2700',
                   NOM_CMP='DX',
                   ),
                ),
          )

TEST_RESU(RESU=(_F(VALE_CALC_C=(0.95836500000000-0.054484700000000j),
                   RESULTAT=DYNB,
                   NOM_CHAM='ACCE',
                   NOEUD='NC1',
                   NOM_CMP='DX',
                   FREQ=3.8999999999999999,),
                _F(VALE_CALC_C=(0.95602600000000-0.048466700000000j),
                   RESULTAT=DYNB,
                   NOM_CHAM='ACCE',
                   NOEUD='NC1',
                   NOM_CMP='DY',
                   FREQ=3.8999999999999999,),
                _F(VALE_CALC_C=(0.98936000000000+4.93506E-03j),
                   RESULTAT=DYNB,
                   NOM_CHAM='ACCE',
                   NOEUD='NC1',
                   NOM_CMP='DX',
                   FREQ=4.7999999999999998,),
                _F(VALE_CALC_C=(0.98759500000000+6.03771E-03j),
                   RESULTAT=DYNB,
                   NOM_CHAM='ACCE',
                   NOEUD='NC1',
                   NOM_CMP='DY',
                   FREQ=4.7999999999999998,),
                _F(VALE_CALC_C=(0.96599500000000-0.11352700000000j),
                   RESULTAT=DYNB,
                   NOM_CHAM='ACCE',
                   NOEUD='NC2',
                   NOM_CMP='DX',
                   FREQ=3.8999999999999999,),
                _F(VALE_CALC_C=(0.95768200000000-0.099031200000000j),
                   RESULTAT=DYNB,
                   NOM_CHAM='ACCE',
                   NOEUD='NC2',
                   NOM_CMP='DY',
                   FREQ=3.8999999999999999,),
                _F(VALE_CALC_C=(0.97993300000000-1.62009E-03j),
                   RESULTAT=DYNB,
                   NOM_CHAM='ACCE',
                   NOEUD='NC2',
                   NOM_CMP='DX',
                   FREQ=4.7999999999999998,),
                _F(VALE_CALC_C=(0.97673500000000+5.96193E-04j),
                   RESULTAT=DYNB,
                   NOM_CHAM='ACCE',
                   NOEUD='NC2',
                   NOM_CMP='DY',
                   FREQ=4.7999999999999998,),
                ),
          )

# PRE-TRAITEMENT DE MISS3D (UNITE 39):
#-------------------------------------
# MAILLAGE ET IMPEDANCES D INTERFACE
#
IMPR_MACR_ELEM(  MACR_ELEM_DYNA=MAEL,
          FORMAT='MISS_3D',
          SOUS_TITRE='RADIER RIGIDE',
          IMPR_MODE_STAT='OUI',
          IMPR_MODE_MECA='NON',
              AMOR_REDUIT=(0.07,                    ),
              GROUP_MA_INTERF=('SRADIER',),
          UNITE=39,
          FORMAT_R='1PE12.5',
          );


# ACCELERATION HARMONIQUE DANS LE SOL AVEC ONDE INCLINEE
#
IMPR_MISS_3D(  MACR_ELEM_DYNA=MAEL,
              FREQ_INIT=0.,  FREQ_FIN=10.,  PAS=0.1,
              DIRE_ONDE=(0.,0.,1.),
              EXCIT_SOL=_F( DIRECTION = (1., 0., 0.,), NOM_CHAM = 'ACCE',
                         FONC_SIGNAL = FO1),
              UNITE=39
          );

# SOURCE HARMONIQUE DANS LE SOL
#
IMPR_MISS_3D(  MACR_ELEM_DYNA=MAEL,
              FREQ_INIT=0.,  FREQ_FIN=10.,  PAS=0.1,
              SOURCE_SOL=_F(POINT=(50., 0., -10.),
                            DIRECTION=(1.0,0.0,0.0),
                            NOM_CHAM = 'ACCE',
                            FONC_SIGNAL = FO1),
              UNITE=39
          );

# SOURCE HARMONIQUE DANS UN FLUIDE
#
IMPR_MISS_3D(  MACR_ELEM_DYNA=MAEL,
              FREQ_INIT=0.,  FREQ_FIN=10.,  PAS=0.1,
              SOURCE_FLUIDE=_F(POINT=(50., 0., -10.),
                            NOM_CHAM = 'ACCE',
                            FONC_SIGNAL = FO1),
              UNITE=39
          );

#
FIN( )
#
