# TITRE VALIDATION DE PRE_IDEAS POUR DATASET 82
# ======================================================================
# COPYRIGHT (C) 1991 - 2015  EDF R&D                  WWW.CODE-ASTER.ORG
# THIS PROGRAM IS FREE SOFTWARE; YOU CAN REDISTRIBUTE IT AND/OR MODIFY
# IT UNDER THE TERMS OF THE GNU GENERAL PUBLIC LICENSE AS PUBLISHED BY
# THE FREE SOFTWARE FOUNDATION; EITHER VERSION 2 OF THE LICENSE, OR
# (AT YOUR OPTION) ANY LATER VERSION.
#
# THIS PROGRAM IS DISTRIBUTED IN THE HOPE THAT IT WILL BE USEFUL, BUT
# WITHOUT ANY WARRANTY; WITHOUT EVEN THE IMPLIED WARRANTY OF
# MERCHANTABILITY OR FITNESS FOR A PARTICULAR PURPOSE. SEE THE GNU
# GENERAL PUBLIC LICENSE FOR MORE DETAILS.
#
# YOU SHOULD HAVE RECEIVED A COPY OF THE GNU GENERAL PUBLIC LICENSE
# ALONG WITH THIS PROGRAM; IF NOT, WRITE TO EDF R&D CODE_ASTER,
#    1 AVENUE DU GENERAL DE GAULLE, 92141 CLAMART CEDEX, FRANCE.
# ======================================================================
#
#         *** VALIDATION DE LA COMMANDE PRE_IDEAS ***
#
# LECTURE D'UN FICHIER UNIVERSEL ISSU D'UN LOGICIEL D'IDENTIFICATION
# MODALE
# TEST DE LECTURE DU MAILLAGE EXPERIMENTAL ET DE LECTURE
# DES DEFORMEES EXPERIMENTALES

DEBUT(CODE=_F(NIV_PUB_WEB='INTERNET'),DEBUG=_F(SDVERI='OUI'))

PRE_IDEAS(CREA_GROUP_COUL='NON',);

MAYA=LIRE_MAILLAGE( );

MODELE=AFFE_MODELE(MAILLAGE=MAYA,
                   AFFE=_F(TOUT='OUI',
                           PHENOMENE='MECANIQUE',
                           MODELISATION='POU_D_T',),);

MATELAS=DEFI_MATERIAU(ELAS=_F(E=71000000000.0,
                              NU=0.3,
                              RHO=7820,),);

CHMAT=AFFE_MATERIAU(MAILLAGE=MAYA,
                    AFFE=_F(TOUT='OUI',
                            MATER=MATELAS,),);


MODEXP=LIRE_RESU(TYPE_RESU='MODE_MECA_C',
                 FORMAT='IDEAS',
                 MODELE=MODELE,
                 UNITE=19,
                 NOM_CHAM='DEPL',
                 FORMAT_IDEAS=_F(NOM_CHAM='DEPL',
                                 NUME_DATASET=55,
                                 RECORD_6=(1,2,2,8,5,3,),
                                 POSI_ORDRE=(7,4,),
                                 POSI_FREQ=(8,1,),
                                 NOM_CMP=('DX','DY','DZ',),),
                 NUME_ORDRE=(1,2,3),);

IMPR_RESU(RESU=_F(RESULTAT=MODEXP,NUME_ORDRE=2),)
IMPR_RESU(FORMAT='MED',RESU=_F(RESULTAT=MODEXP,PARTIE='REEL',NUME_ORDRE=2),)

# ------------------------------------
# TEST DES FREQUENCES PROPRES LUES
# ------------------------------------

TEST_RESU(RESU=(_F(NUME_ORDRE=1,
                   PARA='FREQ',
                   REFERENCE='NON_DEFINI',
                   RESULTAT=MODEXP,
                   VALE_CALC=166.258000000,
                   VALE_REFE=166.25800000000001,
                   CRITERE='RELATIF',
                   PRECISION=0.050000000000000003,),
                _F(NUME_ORDRE=2,
                   PARA='FREQ',
                   REFERENCE='NON_DEFINI',
                   RESULTAT=MODEXP,
                   VALE_CALC=225.885000000,
                   VALE_REFE=225.88499999999999,
                   CRITERE='RELATIF',
                   PRECISION=0.050000000000000003,),
                _F(NUME_ORDRE=3,
                   PARA='FREQ',
                   REFERENCE='NON_DEFINI',
                   RESULTAT=MODEXP,
                   VALE_CALC=349.164000000,
                   VALE_REFE=349.16399999999999,
                   CRITERE='RELATIF',
                   PRECISION=0.050000000000000003,),
                ),
          )

# ------------------------------------
# TEST ECRITURE ET LECTURE DU MAILLAGE
# ------------------------------------

# FORMAT GMSH
# -----------

IMPR_RESU(FORMAT='GMSH', UNITE=60, RESU=_F(MAILLAGE=MAYA,),);

DEFI_FICHIER (ACTION='LIBERER',UNITE=60)

PRE_GMSH(UNITE_GMSH=60,UNITE_MAILLAGE=22)

MA22=LIRE_MAILLAGE(UNITE=22)


# FORMAT IDEAS
# ------------

IMPR_RESU(FORMAT='IDEAS', UNITE=62, RESU=_F(MAILLAGE=MAYA,),);

DEFI_FICHIER (ACTION='LIBERER',UNITE=62)

PRE_IDEAS(UNITE_IDEAS=62,UNITE_MAILLAGE=23,)

MA23=LIRE_MAILLAGE(UNITE=23)

# FORMAT IDEAS POUR TESTER LE RETOUR DE DEFI_FICHIER
# --------------------------------------------------
uniideas=DEFI_FICHIER(FICHIER='./REPE_OUT/fic_ideas');

IMPR_RESU(FORMAT='IDEAS', UNITE=uniideas, RESU=_F(MAILLAGE=MAYA,),);

DEFI_FICHIER (ACTION='LIBERER',UNITE=uniideas)

TEST_FICHIER(FICHIER="./REPE_OUT/fic_ideas",
             NB_VALE_I=659,
             VALE_CALC_I=13772,
             NB_VALE=200,
             VALE_CALC=5.5525000000e+2,
             VALE_CALC_K="3b89c286ed816e625b97227f8d41344a",
             EXPR_IGNORE=('[0-9]{2}/[0-9]{2}/[0-9]{4}',),
)

# FORMAT CASTEM
# -------------

IMPR_RESU(FORMAT='CASTEM', UNITE=64, RESU=_F(MAILLAGE=MAYA,),);

DEFI_FICHIER (ACTION='LIBERER',UNITE=64)

PRE_GIBI(UNITE_GIBI=64,UNITE_MAILLAGE=24)

MA24=LIRE_MAILLAGE(UNITE=24)


TEST_RESU(OBJET=(_F(
                    VALE_CALC=353.25,
                    NOM='MA22    .COORDO    .VALE',),
                 _F(
                    VALE_CALC=554.25,
                    NOM='MA23    .COORDO    .VALE',),
                 _F(
                    VALE_CALC=554.25,
                    NOM='MA24    .COORDO    .VALE',),
                 ),
          )

FIN();
