# ======================================================================
# COPYRIGHT (C) 1991 - 2016  EDF R&D                  WWW.CODE-ASTER.ORG
# THIS PROGRAM IS FREE SOFTWARE; YOU CAN REDISTRIBUTE IT AND/OR MODIFY
# IT UNDER THE TERMS OF THE GNU GENERAL PUBLIC LICENSE AS PUBLISHED BY
# THE FREE SOFTWARE FOUNDATION; EITHER VERSION 2 OF THE LICENSE, OR
# (AT YOUR OPTION) ANY LATER VERSION.
#
# THIS PROGRAM IS DISTRIBUTED IN THE HOPE THAT IT WILL BE USEFUL, BUT
# WITHOUT ANY WARRANTY; WITHOUT EVEN THE IMPLIED WARRANTY OF
# MERCHANTABILITY OR FITNESS FOR A PARTICULAR PURPOSE. SEE THE GNU
# GENERAL PUBLIC LICENSE FOR MORE DETAILS.
#
# YOU SHOULD HAVE RECEIVED A COPY OF THE GNU GENERAL PUBLIC LICENSE
# ALONG WITH THIS PROGRAM; IF NOT, WRITE TO EDF R&D CODE_ASTER,
#    1 AVENUE DU GENERAL DE GAULLE, 92141 CLAMART CEDEX, FRANCE.
# ======================================================================
# A RAJOUTER AUX TESTS MPI SUR 2 PROCS
DEBUT(CODE=_F(NIV_PUB_WEB='INTERNET',),);

_IMAX = 1.73435331104e-08;

_XEIP = 0.46443271637;

_XEIL = 0.46443271637;

_AIRE = 0.000408493752924;

_ELAS = 69632222222.2;

_RHO = 3351.33644077;

_TEMPELAS = -47.5086271764;

_OMEGA = 137.18;

_ALPHA = 2e-05;

_AMALPHA = 3.65566215458e-06;

_AMBETA = 0.0683810077783;

_TPDEB = 10.1;

_TFIN = 10.5;

_TFIN2 = 10.6;

_EXC = 'EXCIT19';

_FORCE = 3.46;

_PK = 'PK19';

MAIL0=LIRE_MAILLAGE(UNITE=20,
                    FORMAT='MED',);

MAIL0=DEFI_GROUP(reuse =MAIL0,
                 MAILLAGE=MAIL0,
                 CREA_GROUP_MA=_F(NOM='TOTAL',
                                  TOUT='OUI',),);

MAIL0=DEFI_GROUP(reuse =MAIL0,
                 MAILLAGE=MAIL0,
                 CREA_GROUP_NO=_F(GROUP_MA='TOTAL',
                                  NOM='NCABLE',
                                  CRIT_NOEUD='TOUS',),);

MAIL1=CREA_MAILLAGE(MAILLAGE=MAIL0,
                    CREA_MAILLE=_F(NOM='TOTAL1',
                                     GROUP_MA='TOTAL',
                                     PREF_MAILLE='ZZ',),);

MAIL2=CREA_MAILLAGE(MAILLAGE=MAIL1,
                    CREA_POI1=_F(NOM_GROUP_MA='DIS',
                                 GROUP_NO='NCABLE',),);

MODELE=AFFE_MODELE(MAILLAGE=MAIL2,
                   AFFE=(_F(GROUP_MA='TOTAL',
                            PHENOMENE='MECANIQUE',
                            MODELISATION='POU_D_E',),
                         _F(GROUP_MA='DIS',
                            PHENOMENE='MECANIQUE',
                            MODELISATION='DIS_T',),
                         _F(GROUP_MA='TOTAL1',
                            PHENOMENE='MECANIQUE',
                            MODELISATION='CABLE',),),);

CARA=AFFE_CARA_ELEM(MODELE=MODELE,
                    POUTRE=(_F(GROUP_MA=('CHP','CHPL',),
                               SECTION='GENERALE',
                               CARA=('IY','IZ','JX','A',),
                               VALE=((_IMAX * _XEIP),(_IMAX * _XEIP),((2 * _IMAX) * _XEIP),1E-12,),),
                            _F(GROUP_MA='CHL',
                               SECTION='GENERALE',
                               CARA=('IY','IZ','JX','A',),
                               VALE=((_IMAX * _XEIL),(_IMAX * _XEIL),((2 * _IMAX) * _XEIL),1E-12,),),),
                    CABLE=_F(GROUP_MA='TOTAL1',
                             N_INIT=5000.0,
                             SECTION=_AIRE,),
                    DISCRET=(_F(CARA='A_T_D_N',
                               GROUP_MA='DIS',
                               VALE=(0.0,0.0,0.0,),),
                             _F(CARA='K_T_D_N',
                               GROUP_MA='DIS',
                               VALE=(0.0,0.0,0.0,),),
                             _F(CARA='M_T_D_N',
                               GROUP_MA='DIS',
                               VALE=(0.0,),),));

MPOU=DEFI_MATERIAU(ELAS=_F(E=_ELAS,
                           NU=0.3,
                           RHO=_RHO,
                           ALPHA=_ALPHA,
                           AMOR_ALPHA=_AMALPHA,
                           AMOR_BETA=_AMBETA,),);

MCAB=DEFI_MATERIAU(ELAS=_F(E=_ELAS,
                           NU=0.3,
                           RHO=_RHO,
                           ALPHA=_ALPHA,
                           AMOR_ALPHA=_AMALPHA,
                           AMOR_BETA=_AMBETA,),
                   CABLE=_F(EC_SUR_E=0.0001,),);

CH02=CREA_CHAMP(TYPE_CHAM='NOEU_TEMP_R',
                OPERATION='AFFE',
                MODELE=MODELE,
                AFFE=_F(TOUT='OUI',
                        NOM_CMP='TEMP',
                        VALE=_TEMPELAS,),);

CH01=CREA_CHAMP(TYPE_CHAM='NOEU_TEMP_R',
                OPERATION='AFFE',
                MODELE=MODELE,
                AFFE=_F(TOUT='OUI',
                        NOM_CMP='TEMP',
                        VALE=0.0,),);

RES01=CREA_RESU(OPERATION='AFFE',
                TYPE_RESU='EVOL_VARC',
                NOM_CHAM='TEMP',
                AFFE=(
                _F(CHAM_GD=CH01,
                   INST=0.0,),
                _F(CHAM_GD=CH02,
                   INST=1.0,),),);

MAT=AFFE_MATERIAU(MAILLAGE=MAIL2,
                  MODELE=MODELE,
                  AFFE=(_F(GROUP_MA='TOTAL',
                           MATER=MPOU,),
                        _F(GROUP_MA='TOTAL1',
                           MATER=MCAB,),
                        _F(GROUP_MA='DIS',
                           MATER=MPOU,),),
                  AFFE_VARC=_F(TOUT='OUI',
                               NOM_VARC='TEMP',
                               EVOL=RES01,
                               PROL_DROITE='CONSTANT',
                               VALE_REF=0.0,),);

BC=AFFE_CHAR_MECA(MODELE=MODELE,
                  PESANTEUR=_F(GRAVITE=9.81,
                               DIRECTION=(0.,0.,-1.,),),
                  DDL_IMPO=_F(GROUP_NO=('BC1','BC2',),
                              DX=0.0,
                              DY=0.0,
                              DZ=0.0,
                              DRX=0.0,
                              DRY=0.0,
                              DRZ=0.0,),);

LIST=DEFI_LIST_REEL(DEBUT=0.0,
                    INTERVALLE=(_F(JUSQU_A=10.0,
                                   NOMBRE=5,),
                                _F(JUSQU_A=11.0,
                                   PAS=0.01,),),);

SNL=STAT_NON_LINE(MODELE=MODELE,
                  CHAM_MATER=MAT,
                  CARA_ELEM=CARA,
                  EXCIT=_F(CHARGE=BC,),
                  COMPORTEMENT=(_F(RELATION='ELAS',
                               DEFORMATION='PETIT',
                               GROUP_MA=('DIS','TOTAL',),),
                               _F(RELATION='CABLE',
                               DEFORMATION='GROT_GDEP',
                               GROUP_MA='TOTAL1',),),
                  INCREMENT=_F(LIST_INST=LIST,
                               INST_FIN=10.0,),
                  NEWTON=_F(MATRICE='TANGENTE',
                            REAC_ITER=1,),
                  CONVERGENCE=_F(RESI_GLOB_MAXI=1E-03,
                                 RESI_GLOB_RELA=1E-09,
                                 ITER_GLOB_MAXI=500,
                                 ),
                  SOLVEUR=_F(METHODE='MULT_FRONT',
                             NPREC=15,),);

LOAD=AFFE_CHAR_MECA(MODELE=MODELE,
                    FORCE_NODALE=_F(GROUP_NO='EXCIT19',
                                    FZ=_FORCE,),);

FSIN = FORMULE(VALE='sin((INST-10)*_OMEGA)',
               NOM_PARA='INST',);

DNL=DYNA_NON_LINE(MODELE=MODELE,
                  CHAM_MATER=MAT,
                  CARA_ELEM=CARA,
                  EXCIT=(_F(CHARGE=BC,),
                         _F(CHARGE=LOAD,
                            FONC_MULT=FSIN,),),
                  COMPORTEMENT=(_F(RELATION='ELAS',
                               DEFORMATION='PETIT',
                               GROUP_MA=('DIS','TOTAL',),),
                                _F(RELATION='CABLE',
                               DEFORMATION='GROT_GDEP',
                               GROUP_MA='TOTAL1',),),
                  ETAT_INIT=_F(EVOL_NOLI=SNL,),
                  INCREMENT=_F(LIST_INST=LIST,
                               INST_FIN=_TFIN,),
                  SCHEMA_TEMPS=_F(SCHEMA='NEWMARK',
                                  FORMULATION='DEPLACEMENT',),
                  NEWTON=_F(MATRICE='TANGENTE',
                            REAC_ITER=1,),
                  SOLVEUR=_F(METHODE='MUMPS',
                             MATR_DISTRIBUEE='OUI'),
                  CONVERGENCE=_F(ITER_GLOB_MAXI=50,),);

TEST_RESU(RESU=(_F(INST=10.5,
                   RESULTAT=DNL,
                   NOM_CHAM='DEPL',
                   NOEUD='N1',
                   NOM_CMP='DX',
                   VALE_CALC=-1.20001289E-4,
                   CRITERE='RELATIF',
                   ),
                _F(INST=10.5,
                   RESULTAT=DNL,
                   NOM_CHAM='DEPL',
                   NOEUD='N1',
                   NOM_CMP='DZ',
                   VALE_CALC=-0.233754878,
                   CRITERE='RELATIF',
                   ),
                _F(INST=10.5,
                   RESULTAT=DNL,
                   NOM_CHAM='DEPL',
                   NOEUD='N1021',
                   NOM_CMP='DX',
                   VALE_CALC=4.0130526599999999E-4,
                   CRITERE='RELATIF',
                   ),
                _F(INST=10.5,
                   RESULTAT=DNL,
                   NOM_CHAM='DEPL',
                   NOEUD='N1021',
                   NOM_CMP='DZ',
                   VALE_CALC=-0.195459785,
                   CRITERE='RELATIF',
                   ),
                ),
          )

FIN();
