# TITRE TEST UNITAIRE SUR COQUE_3D VALIDANT LES CHAMPS _ELGA ET _ELNO
# ======================================================================
# COPYRIGHT (C) 1991 - 2013  EDF R&D                  WWW.CODE-ASTER.ORG
# THIS PROGRAM IS FREE SOFTWARE; YOU CAN REDISTRIBUTE IT AND/OR MODIFY
# IT UNDER THE TERMS OF THE GNU GENERAL PUBLIC LICENSE AS PUBLISHED BY
# THE FREE SOFTWARE FOUNDATION; EITHER VERSION 2 OF THE LICENSE, OR
# (AT YOUR OPTION) ANY LATER VERSION.
#
# THIS PROGRAM IS DISTRIBUTED IN THE HOPE THAT IT WILL BE USEFUL, BUT
# WITHOUT ANY WARRANTY; WITHOUT EVEN THE IMPLIED WARRANTY OF
# MERCHANTABILITY OR FITNESS FOR A PARTICULAR PURPOSE. SEE THE GNU
# GENERAL PUBLIC LICENSE FOR MORE DETAILS.
#
# YOU SHOULD HAVE RECEIVED A COPY OF THE GNU GENERAL PUBLIC LICENSE
# ALONG WITH THIS PROGRAM; IF NOT, WRITE TO EDF R&D CODE_ASTER,
#    1 AVENUE DU GENERAL DE GAULLE, 92141 CLAMART CEDEX, FRANCE.
# ======================================================================
#CAS_TEST__: ZZZZ349B
#
# ----------------------------------------------------------------------
# ZZZZ349B                  COMMANDES
# TEST UNITAIRE SUR COQUE_3D
#
# MODELISATION : ELEMENTS COQUE_3D : ELEMENTS TRIA7 
# MAILLAGE     : ASTER
# ----------------------------------------------------------------------
DEBUT( CODE=_F(  NOM = 'ZZZZ349B',NIV_PUB_WEB='INTERNET'),DEBUG=_F(SDVERI='OUI'))
MAIL=LIRE_MAILLAGE()
MAIL=DEFI_GROUP(reuse =MAIL,
              MAILLAGE=MAIL,
             CREA_GROUP_MA=_F(TOUT='OUI',
                               NOM='TOUT',),)

MO=AFFE_MODELE(AFFE=_F(TOUT='OUI',
                       PHENOMENE='MECANIQUE',
                       MODELISATION='COQUE_3D',),
               MAILLAGE=MAIL,);
CAR_ELE=AFFE_CARA_ELEM(MODELE=MO,
                       COQUE=_F(ANGL_REP=(0.0,0.0),
                                GROUP_MA='TOUT',
                                EPAIS=0.1,),);
MAT=DEFI_MATERIAU(ELAS=_F(NU=0.25,
                          E=25.0,),);
CHAM_MAT=AFFE_MATERIAU(AFFE=_F(MATER=MAT,
                               TOUT='OUI',),
                       MAILLAGE=MAIL,);

CHA=AFFE_CHAR_MECA(DDL_IMPO=_F(DX=0.0,
                                DY=0.0,
                                DZ=0.0,
                                NOEUD=('N1','N2','N4','N5','N8',),
                                DRZ=0.0,
                                DRX=0.0,
                                DRY=0.0,),
                   MODELE=MO,
                       FORCE_COQUE=_F(PRES=10.,
                                      GROUP_MA='TOUT',),);

RESU=MECA_STATIQUE(CHAM_MATER=CHAM_MAT,
                   MODELE=MO,
                   CARA_ELEM=CAR_ELE,
                   EXCIT=_F(CHARGE=CHA,),
                          )
RESU=CALC_CHAMP(reuse=RESU,RESULTAT=RESU,CONTRAINTE='SIGM_ELGA',
                                         DEFORMATION='DEGE_ELGA')


RESGA=POST_CHAMP(RESULTAT=RESU,
                 EXTR_COQUE=_F(NOM_CHAM='SIGM_ELGA',
                               NUME_COUCHE=1,
                               NIVE_COUCHE='SUP',),);

IMPR_RESU(RESU=(_F(RESULTAT=RESGA,NOM_CHAM='SIGM_ELGA',
                MAILLE=('M1','M2'),),
                _F(RESULTAT=RESU,NOM_CHAM='DEGE_ELGA',
                MAILLE=('M1','M2'),),),) 
                          
TEST_RESU(RESU=(
# TEST DE LA SYMETRIE ENTRE LES CMP SIXX ET SIYY AU POINT 5
               _F(CRITERE='RELATIF',
                  NUME_ORDRE=1,
                  NOM_CHAM='SIGM_ELGA',
                  NOM_CMP='SIXX',
                  MAILLE='M1',
                  POINT= 5,
                  RESULTAT=RESGA,
                  VALE_CALC=2.20615126959011E+01,
                  ),
               _F(CRITERE='RELATIF',
                  NUME_ORDRE=1,
                  NOM_CHAM='SIGM_ELGA',
                  NOM_CMP='SIYY',
                  MAILLE='M1',
                  POINT= 5,
                  RESULTAT=RESGA,
                  VALE_CALC=2.20615126959011E+01,
                  ),
# TEST DE LA SYMETRIE XY ENTRE LES POINTS 3 ET 4
               _F(CRITERE='RELATIF',
                  NUME_ORDRE=1,
                  NOM_CHAM='SIGM_ELGA',
                  NOM_CMP='SIXX',
                  MAILLE='M1',
                  POINT= 3,
                  RESULTAT=RESGA,
                  VALE_CALC=1.09441138854081E+02,
                  ),
               _F(CRITERE='RELATIF',
                  NUME_ORDRE=1,
                  NOM_CHAM='SIGM_ELGA',
                  NOM_CMP='SIYY',
                  MAILLE='M1',
                  POINT= 4,
                  RESULTAT=RESGA,
                  VALE_CALC=1.09441138854081E+02,
                  ),
# TEST DE LA SYMETRIE XY ENTRE LES POINTS 6 ET 7
               _F(CRITERE='RELATIF',
                  NUME_ORDRE=1,
                  NOM_CHAM='SIGM_ELGA',
                  NOM_CMP='SIXX',
                  MAILLE='M1',
                  POINT= 6,
                  RESULTAT=RESGA,
                  VALE_CALC=1.00562364109997E+02,
                  ),
               _F(CRITERE='RELATIF',
                  NUME_ORDRE=1,
                  NOM_CHAM='SIGM_ELGA',
                  NOM_CMP='SIYY',
                  MAILLE='M1',
                  POINT= 7,
                  RESULTAT=RESGA,
                  VALE_CALC=1.00562364109997E+02,
                  ),
                  ),)
                          
TEST_RESU(RESU=(
# TEST DE LA SYMETRIE ENTRE LES CMP KXX ET KYY AU POINT 5
               _F(CRITERE='RELATIF',
                  NUME_ORDRE=1,
                  NOM_CHAM='DEGE_ELGA',
                  NOM_CMP='KXX',
                  MAILLE='M1',
                  POINT= 5,
                  RESULTAT=RESU,
                  VALE_CALC=1.32369076175407E+01,
                  ),
               _F(CRITERE='RELATIF',
                  NUME_ORDRE=1,
                  NOM_CHAM='DEGE_ELGA',
                  NOM_CMP='KYY',
                  MAILLE='M1',
                  POINT= 5,
                  RESULTAT=RESU,
                  VALE_CALC=1.32369076175407E+01,
                  ),
# TEST DE LA SYMETRIE XY ENTRE LES POINTS 3 ET 4
               _F(CRITERE='RELATIF',
                  NUME_ORDRE=1,
                  NOM_CHAM='DEGE_ELGA',
                  NOM_CMP='KXX',
                  MAILLE='M1',
                  POINT= 3,
                  RESULTAT=RESU,
                  VALE_CALC=7.87877847266685E+01,
                  ),
               _F(CRITERE='RELATIF',
                  NUME_ORDRE=1,
                  NOM_CHAM='DEGE_ELGA',
                  NOM_CMP='KYY',
                  MAILLE='M1',
                  POINT= 4,
                  RESULTAT=RESU,
                  VALE_CALC=7.87877847266685E+01,
                  ),
# TEST DE LA SYMETRIE XY ENTRE LES POINTS 6 ET 7
               _F(CRITERE='RELATIF',
                  NUME_ORDRE=1,
                  NOM_CHAM='DEGE_ELGA',
                  NOM_CMP='KXX',
                  MAILLE='M1',
                  POINT= 6,
                  RESULTAT=RESU,
                  VALE_CALC=3.14471590213733E+01,
                  ),
               _F(CRITERE='RELATIF',
                  NUME_ORDRE=1,
                  NOM_CHAM='DEGE_ELGA',
                  NOM_CMP='KYY',
                  MAILLE='M1',
                  POINT= 7,
                  RESULTAT=RESU,
                  VALE_CALC=3.14471590213733E+01,
                  ),
                  ),)

CHAMEL=CALC_CHAM_ELEM(    MODELE=MO,
                              CARA_ELEM=CAR_ELE,
#                             MAILLE=('M1',),
                             GROUP_MA='TOUT',
                             OPTION='COOR_ELGA' )

IMPR_RESU(RESU=_F(CHAM_GD=CHAMEL,))

TEST_RESU(CHAM_ELEM=(
# TEST SUR LES COORDONNEES DES PTS DE GAUSS
               _F(CRITERE='RELATIF',
                  NOM_CMP='X',
                  MAILLE='M1',
                  POINT= 5,SOUS_POINT=1,
                  CHAM_GD=CHAMEL,
                  VALE_CALC=1.012864337E-01,
                  ),
               _F(CRITERE='RELATIF',
                  NOM_CMP='Y',
                  MAILLE='M1',
                  POINT= 5,SOUS_POINT=1,
                  CHAM_GD=CHAMEL,
                  VALE_CALC=1.012864337E-01,
                  ),
               _F(CRITERE='RELATIF',
                  NOM_CMP='X',
                  MAILLE='M1',
                  POINT= 3,SOUS_POINT=1,
                  CHAM_GD=CHAMEL,
                  VALE_CALC=5.971575300E-02,
                  ),
               _F(CRITERE='RELATIF',
                  NOM_CMP='Y',
                  MAILLE='M1',
                  POINT= 3,SOUS_POINT=3,
                  CHAM_GD=CHAMEL,
                  VALE_CALC=4.701419453E-01,
                  ),
                  ),)

RESU=CALC_CHAMP(reuse=RESU,RESULTAT=RESU,
                CONTRAINTE=('SIGM_ELNO','EFGE_ELNO',),
                DEFORMATION='DEGE_ELNO')
RESNO=POST_CHAMP(RESULTAT=RESU,
                 EXTR_COQUE=_F(NOM_CHAM='SIGM_ELNO',
                               NUME_COUCHE=1,
                               NIVE_COUCHE='SUP',),);

IMPR_RESU(RESU=_F(RESULTAT=RESNO,NOM_CHAM='SIGM_ELNO',
                MAILLE=('M1','M2'),))
IMPR_RESU(RESU=_F(RESULTAT=RESU,NOM_CHAM='EFGE_ELNO',
                MAILLE=('M1','M2'),))
IMPR_RESU(RESU=_F(RESULTAT=RESU,NOM_CHAM='DEGE_ELNO',
                MAILLE=('M1','M2'),))

# TESTS SUR SIGM_ELNO
# *******************
TEST_RESU(RESU=(
# TEST DE LA SYMETRIE ENTRE LES CMP SIXX ET SIYY AU NOEUD N9
# DE LA MAILLE M1
               _F(CRITERE='RELATIF',
                  NUME_ORDRE=1,
                  NOM_CHAM='SIGM_ELNO',
                  NOM_CMP='SIXX',
                  MAILLE='M1',
                  NOEUD= 'N9',
                  RESULTAT=RESNO,
                  VALE_CALC=2.04956622164489E+02,
                  ),
               _F(CRITERE='RELATIF',
                  NUME_ORDRE=1,
                  NOM_CHAM='SIGM_ELNO',
                  NOM_CMP='SIYY',
                  MAILLE='M1',
                  NOEUD= 'N9',
                  RESULTAT=RESNO,
                  VALE_CALC=2.04956622164489E+02,
                  ),
# TEST DE LA SYMETRIE XY ENTRE LES NOEUDS N2 ET N4 DE LA MAILLE M1
               _F(CRITERE='RELATIF',
                  NUME_ORDRE=1,
                  NOM_CHAM='SIGM_ELNO',
                  NOM_CMP='SIXX',
                  MAILLE='M1',
                  NOEUD= 'N2',
                  RESULTAT=RESNO,
                  VALE_CALC=1.07348072579771E+02,
                  ),
               _F(CRITERE='RELATIF',
                  NUME_ORDRE=1,
                  NOM_CHAM='SIGM_ELNO',
                  NOM_CMP='SIYY',
                  MAILLE='M1',
                  NOEUD= 'N4',
                  RESULTAT=RESNO,
                  VALE_CALC=1.07348072579771E+02,
                  ),
# TEST DE LA SYMETRIE ENTRE LES CMP SIXX ET SIYY AU NOEUD N3
# DE LA MAILLE M2
               _F(CRITERE='RELATIF',
                  NUME_ORDRE=1,
                  NOM_CHAM='SIGM_ELNO',
                  NOM_CMP='SIXX',
                  MAILLE='M2',
                  NOEUD= 'N3',
                  RESULTAT=RESNO,
                  VALE_CALC=-2.33987805756942E+02,
                  ),
               _F(CRITERE='RELATIF',
                  NUME_ORDRE=1,
                  NOM_CHAM='SIGM_ELNO',
                  NOM_CMP='SIYY',
                  MAILLE='M2',
                  NOEUD= 'N3',
                  RESULTAT=RESNO,
                  VALE_CALC=-2.33987805756942E+02,
                  ),
# TEST DE LA SYMETRIE XY ENTRE LES NOEUDS N2 ET N4 DE LA MAILLE M2
               _F(CRITERE='RELATIF',
                  NUME_ORDRE=1,
                  NOM_CHAM='SIGM_ELNO',
                  NOM_CMP='SIXX',
                  MAILLE='M2',
                  NOEUD= 'N2',
                  RESULTAT=RESNO,
                  VALE_CALC=3.14238404887456E+01,
                  ),
               _F(CRITERE='RELATIF',
                  NUME_ORDRE=1,
                  NOM_CHAM='SIGM_ELNO',
                  NOM_CMP='SIYY',
                  MAILLE='M2',
                  NOEUD= 'N4',
                  RESULTAT=RESNO,
                  VALE_CALC=3.14238404887456E+01,
                  ),
                  ),)
# TESTS SUR EFGE_ELNO
# *******************
TEST_RESU(RESU=(
# TEST DE LA SYMETRIE ENTRE LES CMP MXX ET MYY AU NOEUD N9
               _F(CRITERE='RELATIF',
                  NUME_ORDRE=1,
                  NOM_CHAM='EFGE_ELNO',
                  NOM_CMP='MXX',
                  MAILLE='M1',
                  NOEUD= 'N9',
                  RESULTAT=RESU,
                  VALE_CALC=3.36256528583488E-01,
                  ),
               _F(CRITERE='RELATIF',
                  NUME_ORDRE=1,
                  NOM_CHAM='EFGE_ELNO',
                  NOM_CMP='MYY',
                  MAILLE='M1',
                  NOEUD= 'N9',
                  RESULTAT=RESU,
                  VALE_CALC=3.36256528583488E-01,
                  ),
# TEST DE LA SYMETRIE XY ENTRE LES NOEUDS N2 ET N4
               _F(CRITERE='RELATIF',
                  NUME_ORDRE=1,
                  NOM_CHAM='EFGE_ELNO',
                  NOM_CMP='MXX',
                  MAILLE='M1',
                  NOEUD= 'N2',
                  RESULTAT=RESU,
                  VALE_CALC= 0.17037290759457,
                  ),
               _F(CRITERE='RELATIF',
                  NUME_ORDRE=1,
                  NOM_CHAM='EFGE_ELNO',
                  NOM_CMP='MYY',
                  MAILLE='M1',
                  NOEUD= 'N4',
                  RESULTAT=RESU,
                  VALE_CALC= 0.17037290759457,
                  ),
# TEST DE LA SYMETRIE XY ENTRE LES NOEUDS N6 ET N7
               _F(CRITERE='RELATIF',
                  NUME_ORDRE=1,
                  NOM_CHAM='EFGE_ELNO',
                  NOM_CMP='MXX',
                  MAILLE='M2',
                  NOEUD= 'N7',
                  RESULTAT=RESU,
                  VALE_CALC=2.57530286060248E-01,
                  ),
               _F(CRITERE='RELATIF',
                  NUME_ORDRE=1,
                  NOM_CHAM='EFGE_ELNO',
                  NOM_CMP='MYY',
                  MAILLE='M2',
                  NOEUD= 'N6',
                  RESULTAT=RESU,
                  VALE_CALC=2.57530286060248E-01,
                  ),
                  ),)
# TESTS SUR DEGE_ELNO
# *******************
TEST_RESU(RESU=(
# TEST DE LA SYMETRIE ENTRE LES CMP KXX ET KYY AU NOEUD N9
               _F(CRITERE='RELATIF',
                  NUME_ORDRE=1,
                  NOM_CHAM='DEGE_ELNO',
                  NOM_CMP='KXX',
                  MAILLE='M1',
                  NOEUD= 'N9',
                  RESULTAT=RESU,
                  VALE_CALC=9.65153932369617E+01,
                  ),
               _F(CRITERE='RELATIF',
                  NUME_ORDRE=1,
                  NOM_CHAM='DEGE_ELNO',
                  NOM_CMP='KYY',
                  MAILLE='M1',
                  NOEUD= 'N9',
                  RESULTAT=RESU,
                  VALE_CALC=9.65153932369617E+01,
                  ),
# TEST DE LA SYMETRIE XY ENTRE LES NOEUDS N2 ET N4
               _F(CRITERE='RELATIF',
                  NUME_ORDRE=1,
                  NOM_CHAM='DEGE_ELNO',
                  NOM_CMP='KXX',
                  MAILLE='M1',
                  NOEUD= 'N2',
                  RESULTAT=RESU,
                  VALE_CALC= -7.30500562795692E+01,
                  ),
               _F(CRITERE='RELATIF',
                  NUME_ORDRE=1,
                  NOM_CHAM='DEGE_ELNO',
                  NOM_CMP='KYY',
                  MAILLE='M1',
                  NOEUD= 'N4',
                  RESULTAT=RESU,
                  VALE_CALC= -7.30500562795692E+01,
                  ),
# TEST DE LA SYMETRIE XY ENTRE LES NOEUDS N6 ET N7
               _F(CRITERE='RELATIF',
                  NUME_ORDRE=1,
                  NOM_CHAM='DEGE_ELNO',
                  NOM_CMP='KXX',
                  MAILLE='M2',
                  NOEUD= 'N7',
                  RESULTAT=RESU,
                  VALE_CALC=1.15288835183563E+02,
                  ),
               _F(CRITERE='RELATIF',
                  NUME_ORDRE=1,
                  NOM_CHAM='DEGE_ELNO',
                  NOM_CMP='KYY',
                  MAILLE='M2',
                  NOEUD= 'N6',
                  RESULTAT=RESU,
                  VALE_CALC=1.15288835183563E+02,
                  ),
                  ),)
FIN()
