# ======================================================================
# TITRE : VALIDATION FROTTEMENT ECREVISSE ICHAL = 2 - FLUIDE = 4
# ======================================================================
# COPYRIGHT (C) 1991 - 2013  EDF R&D                  WWW.CODE-ASTER.ORG
# THIS PROGRAM IS FREE SOFTWARE; YOU CAN REDISTRIBUTE IT AND/OR MODIFY
# IT UNDER THE TERMS OF THE GNU GENERAL PUBLIC LICENSE AS PUBLISHED BY
# THE FREE SOFTWARE FOUNDATION; EITHER VERSION 2 OF THE LICENSE, OR
# (AT YOUR OPTION) ANY LATER VERSION.
#
# THIS PROGRAM IS DISTRIBUTED IN THE HOPE THAT IT WILL BE USEFUL, BUT
# WITHOUT ANY WARRANTY; WITHOUT EVEN THE IMPLIED WARRANTY OF
# MERCHANTABILITY OR FITNESS FOR A PARTICULAR PURPOSE. SEE THE GNU
# GENERAL PUBLIC LICENSE FOR MORE DETAILS.
#
# YOU SHOULD HAVE RECEIVED A COPY OF THE GNU GENERAL PUBLIC LICENSE
# ALONG WITH THIS PROGRAM; IF NOT, WRITE TO EDF R&D CODE_ASTER,
#    1 AVENUE DU GENERAL DE GAULLE, 92141 CLAMART CEDEX, FRANCE.
#############################################################################################
#
# VALIDATION TEST FOR MACR_ECREVISSE : OPTIONS FOR THE FRICTION COEFFICIENT
#
#   HEAT EXCHANGE OPTION : 2 (ICHAL)
#   FLUID TYPE : 4 (AIR + OVERHEATED STEAM)
#############################################################################################

DEBUT(CODE=_F(NIV_PUB_WEB='INTERNET'), )

Npos = 4

# Tested options for friction coefficient
lst_frot = (11,12,13,14)

# Other Ecrevisse options
ichal  = 2
ivenac = 0
# Total flow computed by Ecrevisse alone
VQRECRE = (1.382548E-03, 4.453103E-03, 3.789439E-02, 3.809795E-02)

# Temperature computed by Ecrevisse alone, abscissa s=0.475
VTRECRE = (1.995935E+01, 1.994826E+01, 1.989370E+01, 1.989488E+01)


## --------------------------------------------------- Not tested quantities (air, steam, liquid flow, convection coefficient) ---------------------------------------- #
## --------------------------------------------------------------------------- Computed by Ecrevisse ------------------------------------------------------------------ #
#VCCECRE = (8.025839E+04, 3.139347E+03, 8.010406E+03, 4.967041E+04, 5.207208E+04, 3.139348E+03, 4.263268E+04, 3.139367E+03, 8.010449E+03, 4.275361E+04, 4.275362E+04 )
#VQAECRE = (1.194742E-01, 9.673295E-04, 3.115705E-03, 3.648238E-02, 3.551755E-02, 9.673265E-04, 2.665597E-02, 9.673281E-04, 3.115710E-03, 2.673350E-02, 2.673350E-02 )
#VQVECRE = (1.418452E-04, 1.508547E-05, 4.833266E-05, 3.414659E-04, 3.593636E-04, 1.508348E-05, 3.401894E-04, 1.508469E-05, 4.833607E-05, 3.409385E-04, 3.409386E-04 )
#VQLECRE = (5.114210E-02, 4.001380E-04, 1.289075E-03, 1.531849E-02, 1.488645E-02, 4.001387E-04, 1.110181E-02, 4.001382E-04, 1.289073E-03, 1.113434E-02, 1.113434E-02 )
## -------------------------------------------------------------------------------------------------------------------------------------------------------------------- #

# Non regression values for total flow
VQCALC = (1.382554E-03,4.453095E-03, 0.03789454, 0.03809811)

# Non regression values for temperature
VTCALC  = (19.95935 , 19.94827, 19.89362, 19.89481,)

# Boundary conditions for pressure (en Pa)
prext   = 1.0E5
printe  = 1.E6
prinin  = 1.E6
PrAPart = 6.E5

# Boundary conditions for temperature
temp_int = 180. #C
temp_ext = 20.  #C
temp_ref = 20.  #C

# Test duration (in seconds)
duree_inj = 5000.

# Geometry parametres
profondeur = 1.             # m

# Material properties making coupling negligible
lambd      = 0.             # W/m/K
cp         = 88000000000.   # J/kg/K
rho        = 2500.          # kg/m3
rho_cp     = rho*cp         # J/m3/K
coeff_H    = 0.             # W/m2/K
alpha      = 1.0E-20        # 1/K

# ------------------------------------- #
# MESH
# ------------------------------------- #
MAIL = LIRE_MAILLAGE(FORMAT='MED',)

MAIL = DEFI_GROUP(reuse         = MAIL,
                  MAILLAGE      = MAIL,
                  CREA_GROUP_MA = (
                          _F(NOM='GHAUT',    GROUP_MA = ('GM21'),),
                          _F(NOM='GBAS',     GROUP_MA = ('GM22'),),
                          _F(NOM='BETON',    UNION = ('GM21','GM22'),),
                          _F(NOM='INTRADOS', UNION = ('GM14','GM19'),),
                          _F(NOM='EXTRADOS', UNION = ('GM15','GM18'),),
                          _F(NOM='HAUT',     GROUP_MA = ('GM16'),),
                          _F(NOM='BAS',      GROUP_MA = ('GM20'),),
                          _F(NOM='ENCASTRE', UNION = ('BAS','HAUT'),),
                          _F(NOM='BFISH',    GROUP_MA = ('GM13'),),
                          _F(NOM='BFISB',    UNION = ('GM17'),),
                                ),);

MAIL = DEFI_GROUP(
              reuse    = MAIL,
              MAILLAGE = MAIL,
              CREA_GROUP_NO = (
                    _F(GROUP_MA = ('BETON','ENCASTRE','INTRADOS',
                                    'EXTRADOS','BFISH','BFISB',),),
                                _F(OPTION         = 'SEGM_DROI_ORDO',
                                    NOM           = 'BFISBO',
                                    GROUP_NO      = 'BFISB',
                                    GROUP_NO_ORIG = 'GM28',
                                    GROUP_NO_EXTR = 'GM30',
                                    PRECISION     = 1.E-6,
                                    CRITERE       = 'ABSOLU',),
                                _F(OPTION         = 'SEGM_DROI_ORDO',
                                    NOM           = 'BFISHO',
                                    GROUP_NO      = 'BFISH',
                                    GROUP_NO_ORIG = 'GM27',
                                    GROUP_NO_EXTR = 'GM29',
                                    PRECISION     = 1.E-6,
                                    CRITERE       = 'ABSOLU',),),)

MAIL = MODI_MAILLAGE(
              reuse        = MAIL,
              MAILLAGE     = MAIL,
              ORIE_PEAU_2D = _F(GROUP_MA = ('ENCASTRE','INTRADOS',
                                            'EXTRADOS','BFISH','BFISB',),),)


# ------------------------------------- #
# DEFINITION OF MODELS AND MATERIALS
# ------------------------------------- #
MODMECA = AFFE_MODELE(
                  MAILLAGE  = MAIL,
                  AFFE      = (_F(GROUP_MA = ('BETON','ENCASTRE','INTRADOS',
                                              'EXTRADOS','BFISH','BFISB',),
                  PHENOMENE = 'MECANIQUE',
                  MODELISATION = 'D_PLAN',),),)

MODTHER = AFFE_MODELE(
                  MAILLAGE     = MAIL,
                  AFFE         = _F(GROUP_MA = ('BETON','ENCASTRE','INTRADOS',
                                                'EXTRADOS','BFISH','BFISB',),
                  PHENOMENE    = 'THERMIQUE',
                  MODELISATION = 'PLAN_DIAG',),)

BETON = DEFI_MATERIAU(ELAS = _F(E      = 1.E25,
                                NU     = 0.2,
                                ALPHA  = alpha,
                                ),
                      THER = _F(LAMBDA = lambd,
                                RHO_CP = rho_cp,),)

CHMAT=AFFE_MATERIAU(MAILLAGE  = MAIL,
                    AFFE      = (_F(GROUP_MA = ('BETON','ENCASTRE','INTRADOS',
                                                'EXTRADOS','BFISH','BFISB',),
                                    MATER    = BETON,),),
                    AFFE_VARC = (_F(NOM_VARC ='TEMP',
                                    VALE_REF = temp_ref),),)


# ------------------------------------- #
# BOUNDARY CONDITIONS
# ------------------------------------- #
# Mechanical B.C. :
#
CONDMECA = AFFE_CHAR_MECA( MODELE      = MODMECA,
                           FACE_IMPO   = _F(GROUP_MA = ('ENCASTRE'), DNOR = 0.0,),
                           DDL_IMPO    = _F(GROUP_NO = ('GM24','GM25'), DX = 0), )

CONT  = DEFI_CONTACT(MODELE      = MODMECA,
                     FORMULATION = 'DISCRETE',
                     REAC_GEOM   = 'SANS',
                     ZONE        = _F(
                            GROUP_MA_MAIT = 'BFISH',
                            GROUP_MA_ESCL = 'BFISB', ),)


# Temperature and pressure time functions
#
PR_EXT = DEFI_CONSTANTE(VALE = prext,)

PR_INT = DEFI_FONCTION( NOM_PARA    = 'INST',
                        PROL_GAUCHE = 'CONSTANT',
                        PROL_DROITE = 'CONSTANT',
                        VALE = ( 0,              prinin,
                                 duree_inj,      printe, ), )

TEMP_EXT = DEFI_CONSTANTE(VALE = temp_ext,)

TEMP_INT = DEFI_FONCTION(NOM_PARA    = 'INST',
                       PROL_GAUCHE = 'CONSTANT',
                       PROL_DROITE = 'CONSTANT',
                       VALE = ( 0.,        temp_int,
                                duree_inj, temp_int, ), )

# Thermal B.C.
#
H_EXT    = DEFI_CONSTANTE(VALE = coeff_H,)
H_INT    = DEFI_CONSTANTE(VALE = coeff_H,)
CONDTHER = AFFE_CHAR_THER_F(
                    MODELE  = MODTHER,
                    ECHANGE = (_F(GROUP_MA = 'INTRADOS',
                                  COEF_H   = H_INT,
                                  TEMP_EXT = TEMP_INT,),
                               _F(GROUP_MA = 'EXTRADOS',
                                  COEF_H   = H_EXT,
                                  TEMP_EXT = TEMP_EXT,),),)


# --------------------------------------- #
# COMPUTATIONS WITH IFLOW = 4
#   (AIR + OVERHEATED STEAM)
#   USING DIFFERENT FRICTION COEFFICIENTS
# --------------------------------------- #

L_INST = DEFI_LIST_REEL(
                DEBUT      = 0.0,
                INTERVALLE = (
                        _F(JUSQU_A = duree_inj, NOMBRE = 2,), ),)

iflow = 4  # Type of ingoing fluid
RMECA = [None]*Npos

# Friction coefficient computed by rugosity
#  --> Ecrevisse : parameter ifrot>0
#
for icalc in xrange(Npos):

    ifrot = lst_frot[icalc]
    kgtest = 0.5
    if ifrot == 0 :
        kgtest = 0.4

    titre = 'ICHAL=2, IFLOW=4, IFROT='+str(ifrot)
    RMECA[icalc] = MACR_ECREVISSE(
                    TABLE  = CO('TABLECR'),
                    DEBIT  = CO('DEBECR'),
                    TEMPER = CO('TEMPECR'),
                    #
                    CHAM_MATER  = CHMAT,
                    MODELE_MECA = MODMECA,
                    MODELE_THER = MODTHER,
                    EXCIT_MECA  = _F(CHARGE   = CONDMECA),
                    EXCIT_THER  = _F(CHARGE   = CONDTHER),
                    COMPORTEMENT= _F(RELATION ='ELAS',),
                    CONTACT     = CONT,
                    #
                    FISSURE = _F(
                          PREFIXE_FICHIER  = 'FISSURE1',
                          SECTION          = 'RECTANGLE',
                          GROUP_MA         = ('BFISH','BFISB',),
                          RUGOSITE         = 0.5E-06,
                          ZETA             = 0.0,
                          GROUP_NO_ORIG    = ('GM27','GM28',),
                          GROUP_NO_EXTR    = ('GM29','GM30',),
                          LISTE_VAL_BL     = (profondeur,profondeur),
                          OUVERT_REMANENTE = 10.0E-06,
                          TORTUOSITE       = 1.0, ),
                    #
                    ECOULEMENT = _F(
                          FLUIDE_ENTREE    = iflow,
                          PRES_ENTREE_FO   = PR_INT,
                          PRES_SORTIE_FO   = PR_EXT,
                          PRES_PART        = PrAPart,
                          TEMP_ENTREE_FO   = TEMP_INT,),
                    #
                    LIST_INST = L_INST,
                    #
                    MODELE_ECRE = _F(
                          IVENAC         = ivenac,
                          ECOULEMENT     = 'SATURATION',
                          FROTTEMENT     = ifrot,
                          TRANSFERT_CHAL = ichal,),
                    #
                    CONV_CRITERE = _F(
                          TEMP_REF = 0.5,
                          PRES_REF = 0.01*prext,
                          CRITERE  = 'EXPLICITE',),
                    #
                    CONVERGENCE_ECREVISSE = _F(
                          KGTEST         = kgtest,
                          ITER_GLOB_MAXI = 400,),
                    #
                    VERSION     ='3.2.1',
                    COURBES     = 'AUCUNE',
                    ENTETE      = titre,
                    IMPRESSION  = 'NON',
                    INFO        = 1, )

    # Test on the total flow
    TEST_TABLE( REFERENCE = 'SOURCE_EXTERNE',
                PRECISION = 1.E-5,
                VALE_CALC = VQCALC[icalc],
                VALE_REFE = VQRECRE[icalc],
                NOM_PARA  = 'DEBTOT',
                TABLE     = DEBECR,
                FILTRE    = ( _F( NOM_PARA = 'INST',
                                  VALE     = duree_inj,),), )

    # Test on the temperature (s=0.475)
    TEST_TABLE( REFERENCE = 'SOURCE_EXTERNE',
                PRECISION = 1.E-5,
                VALE_CALC = VTCALC[icalc],
                VALE_REFE = VTRECRE[icalc],
                NOM_PARA  = 'TEMP',
                TABLE     = TABLECR,
                FILTRE    = (_F(NOM_PARA = 'COTES',
                                VALE     = 0.475,),
                            _F(NOM_PARA = 'INST',
                                VALE     = duree_inj,), ), )

    DETRUIRE(CONCEPT = _F(NOM = DEBECR))
    DETRUIRE(CONCEPT = _F(NOM = TEMPECR))
    DETRUIRE(CONCEPT = _F(NOM = TABLECR))

FIN();
