# TITRE TEST UNITAIRE SUR COQUE_3D VALIDANT LES CHAMPS _ELGA ET _ELNO
# ======================================================================
# COPYRIGHT (C) 1991 - 2015  EDF R&D                  WWW.CODE-ASTER.ORG
# THIS PROGRAM IS FREE SOFTWARE; YOU CAN REDISTRIBUTE IT AND/OR MODIFY
# IT UNDER THE TERMS OF THE GNU GENERAL PUBLIC LICENSE AS PUBLISHED BY
# THE FREE SOFTWARE FOUNDATION; EITHER VERSION 2 OF THE LICENSE, OR
# (AT YOUR OPTION) ANY LATER VERSION.
#
# THIS PROGRAM IS DISTRIBUTED IN THE HOPE THAT IT WILL BE USEFUL, BUT
# WITHOUT ANY WARRANTY; WITHOUT EVEN THE IMPLIED WARRANTY OF
# MERCHANTABILITY OR FITNESS FOR A PARTICULAR PURPOSE. SEE THE GNU
# GENERAL PUBLIC LICENSE FOR MORE DETAILS.
#
# YOU SHOULD HAVE RECEIVED A COPY OF THE GNU GENERAL PUBLIC LICENSE
# ALONG WITH THIS PROGRAM; IF NOT, WRITE TO EDF R&D CODE_ASTER,
#    1 AVENUE DU GENERAL DE GAULLE, 92141 CLAMART CEDEX, FRANCE.
# ======================================================================
#CAS_TEST__: ZZZZ349A
#
# ----------------------------------------------------------------------
# ZZZZ349A                  COMMANDES
# TEST UNITAIRE SUR COQUE_3D : ELEMENTS QUAD9
#
# MODELISATION : ELEMENTS COQUE_3D 
# MAILLAGE     : ASTER
# ----------------------------------------------------------------------
DEBUT( CODE=_F(NIV_PUB_WEB='INTERNET'),DEBUG=_F(SDVERI='OUI'))
MAIL=LIRE_MAILLAGE()
MAIL=DEFI_GROUP(reuse =MAIL,
             MAILLAGE=MAIL,
             CREA_GROUP_MA=(
                _F(TOUT='OUI', NOM='TOUT',),
                _F(TOUT='OUI', NOM='TOUT2D', TYPE_MAILLE='2D'),
             ))

MO=AFFE_MODELE(AFFE=_F(TOUT='OUI',
                       PHENOMENE='MECANIQUE',
                       MODELISATION='COQUE_3D',),
               MAILLAGE=MAIL,);
CAR_ELE=AFFE_CARA_ELEM(MODELE=MO,
                       COQUE=_F(ANGL_REP=(0.0,0.0),
                                GROUP_MA='TOUT',
                                EPAIS=0.1,),);
MAT=DEFI_MATERIAU(ELAS=_F(NU=0.25,
                          E=25.0,),);
CHAM_MAT=AFFE_MATERIAU(AFFE=_F(MATER=MAT,
                               TOUT='OUI',),
                       MAILLAGE=MAIL,);

CHA=AFFE_CHAR_MECA(DDL_IMPO=_F(DX=0.0,
                                DY=0.0,
                                DZ=0.0,
                                NOEUD=('N1','N2','N4','N5','N8',),
                                DRZ=0.0,
                                DRX=0.0,
                                DRY=0.0,),
                   MODELE=MO,
                       FORCE_COQUE=_F(PRES=10.,
                                      GROUP_MA='TOUT',),);

RESU=MECA_STATIQUE(CHAM_MATER=CHAM_MAT,
                   MODELE=MO,
                   CARA_ELEM=CAR_ELE,
                   EXCIT=_F(CHARGE=CHA,),
                          )
RESU=CALC_CHAMP(reuse=RESU,RESULTAT=RESU,
CONTRAINTE=('SIGM_ELGA','EFGE_ELGA'),
DEFORMATION='DEGE_ELGA')


RESGA=POST_CHAMP(RESULTAT=RESU,
                 EXTR_COQUE=_F(NOM_CHAM='SIGM_ELGA',
                               NUME_COUCHE=1,
                               NIVE_COUCHE='SUP',),);

IMPR_RESU(RESU=(_F(RESULTAT=RESGA,NOM_CHAM='SIGM_ELGA',
                MAILLE=('M1',),),
                _F(RESULTAT=RESU,NOM_CHAM='EFGE_ELGA',
                MAILLE=('M1',),),
                _F(RESULTAT=RESU,NOM_CHAM='DEGE_ELGA',
                MAILLE=('M1',),),
                ),) 
                          
TEST_RESU(RESU=(
# TEST DE LA SYMETRIE ENTRE LES CMP SIXX ET SIYY AU POINT 5
               _F(CRITERE='RELATIF',
                  NUME_ORDRE=1,
                  NOM_CHAM='SIGM_ELGA',
                  NOM_CMP='SIXX',
                  MAILLE='M1',
                  POINT= 5,
                  RESULTAT=RESGA,
                  VALE_CALC=-2.09078307639043E+03,
                  ),
               _F(CRITERE='RELATIF',
                  NUME_ORDRE=1,
                  NOM_CHAM='SIGM_ELGA',
                  NOM_CMP='SIYY',
                  MAILLE='M1',
                  POINT= 5,
                  RESULTAT=RESGA,
                  VALE_CALC=-2.09078307639043E+03,
                  ),
# TEST DE LA SYMETRIE XY ENTRE LES POINTS 2 ET 8
               _F(CRITERE='RELATIF',
                  NUME_ORDRE=1,
                  NOM_CHAM='SIGM_ELGA',
                  NOM_CMP='SIXX',
                  MAILLE='M1',
                  POINT= 2,
                  RESULTAT=RESGA,
                  VALE_CALC=4.45862117497079E+02,
                  ),
               _F(CRITERE='RELATIF',
                  NUME_ORDRE=1,
                  NOM_CHAM='SIGM_ELGA',
                  NOM_CMP='SIYY',
                  MAILLE='M1',
                  POINT= 8,
                  RESULTAT=RESGA,
                  VALE_CALC=4.45862117497079E+02,
                  ),
# TEST DE LA SYMETRIE XY ENTRE LES POINTS 4 ET 6
               _F(CRITERE='RELATIF',
                  NUME_ORDRE=1,
                  NOM_CHAM='SIGM_ELGA',
                  NOM_CMP='SIXX',
                  MAILLE='M1',
                  POINT= 4,
                  RESULTAT=RESGA,
                  VALE_CALC=-4.99267316982714E+02,
                  ),
               _F(CRITERE='RELATIF',
                  NUME_ORDRE=1,
                  NOM_CHAM='SIGM_ELGA',
                  NOM_CMP='SIYY',
                  MAILLE='M1',
                  POINT= 6,
                  RESULTAT=RESGA,
                  VALE_CALC=-4.99267316982714E+02,
                  ),
                  ),)
                          
TEST_RESU(RESU=(
# TEST DE LA SYMETRIE ENTRE LES CMP KXX ET KYY AU POINT 5
               _F(CRITERE='RELATIF',
                  NUME_ORDRE=1,
                  NOM_CHAM='DEGE_ELGA',
                  NOM_CMP='KXX',
                  MAILLE='M1',
                  POINT= 5,
                  RESULTAT=RESU,
                  VALE_CALC=-1.25446984583423E+03,
                  ),
               _F(CRITERE='RELATIF',
                  NUME_ORDRE=1,
                  NOM_CHAM='DEGE_ELGA',
                  NOM_CMP='KYY',
                  MAILLE='M1',
                  POINT= 5,
                  RESULTAT=RESU,
                  VALE_CALC=-1.25446984583423E+03,
                  ),
# TEST DE LA SYMETRIE XY ENTRE LES POINTS 2 ET 8
               _F(CRITERE='RELATIF',
                  NUME_ORDRE=1,
                  NOM_CHAM='DEGE_ELGA',
                  NOM_CMP='KXX',
                  MAILLE='M1',
                  POINT= 2,
                  RESULTAT=RESU,
                  VALE_CALC=6.28722282239751E+01,
                  ),
               _F(CRITERE='RELATIF',
                  NUME_ORDRE=1,
                  NOM_CHAM='DEGE_ELGA',
                  NOM_CMP='KYY',
                  MAILLE='M1',
                  POINT= 8,
                  RESULTAT=RESU,
                  VALE_CALC=6.28722282239751E+01,
                  ),
# TEST DE LA SYMETRIE XY ENTRE LES POINTS 4 ET 6
               _F(CRITERE='RELATIF',
                  NUME_ORDRE=1,
                  NOM_CHAM='DEGE_ELGA',
                  NOM_CMP='KXX',
                  MAILLE='M1',
                  POINT= 4,
                  RESULTAT=RESU,
                  VALE_CALC=-5.07428485800074E+02,
                  ),
               _F(CRITERE='RELATIF',
                  NUME_ORDRE=1,
                  NOM_CHAM='DEGE_ELGA',
                  NOM_CMP='KYY',
                  MAILLE='M1',
                  POINT= 6,
                  RESULTAT=RESU,
                  VALE_CALC=-5.07428485800074E+02,
                  ),
                  ),)

CHAMEL=CALC_CHAM_ELEM(    MODELE=MO, CARA_ELEM=CAR_ELE,
#                            MAILLE=('M1',),
                             GROUP_MA='TOUT2D',
                             OPTION='COOR_ELGA' )

IMPR_RESU(RESU=_F(CHAM_GD=CHAMEL,))

TEST_RESU(CHAM_ELEM=(
# TEST SUR LES COORDONNEES DES PTS DE GAUSS
               _F(CRITERE='RELATIF',
                  NOM_CMP='X',
                  MAILLE='M1',
                  POINT= 5,SOUS_POINT=1,
                  CHAM_GD=CHAMEL,
                  VALE_CALC=7.745966692E-01,
                  ),
               _F(CRITERE='RELATIF',
                  NOM_CMP='Y',
                  MAILLE='M1',
                  POINT= 5,SOUS_POINT=1,
                  CHAM_GD=CHAMEL,
                  VALE_CALC=7.745966692E-01,
                  ),
               _F(CRITERE='RELATIF',
                  NOM_CMP='X',
                  MAILLE='M1',
                  POINT= 2,SOUS_POINT=1,
                  CHAM_GD=CHAMEL,
                  VALE_CALC=0.,
                  ),
               _F(CRITERE='RELATIF',
                  NOM_CMP='Y',
                  MAILLE='M1',
                  POINT= 2,SOUS_POINT=3,
                  CHAM_GD=CHAMEL,
                  VALE_CALC=-7.745966692E-01,
                  ),
                  ),)

RESU=CALC_CHAMP(reuse=RESU,RESULTAT=RESU,
CONTRAINTE=('SIGM_ELNO','EFGE_ELNO'),
DEFORMATION='DEGE_ELNO')
RESNO=POST_CHAMP(RESULTAT=RESU,
                 EXTR_COQUE=_F(NOM_CHAM='SIGM_ELNO',
                               NUME_COUCHE=1,
                               NIVE_COUCHE='SUP',),);

IMPR_RESU(RESU=_F(RESULTAT=RESU,NOM_CHAM='EFGE_ELNO',
                MAILLE=('M1',),))
IMPR_RESU(RESU=_F(RESULTAT=RESU,NOM_CHAM='DEGE_ELNO',
                MAILLE=('M1',),))
IMPR_RESU(RESU=_F(RESULTAT=RESNO,NOM_CHAM='SIGM_ELNO',
                MAILLE=('M1',),))

TEST_RESU(RESU=(
# TEST DE LA SYMETRIE ENTRE LES CMP SIXX ET SIYY AU NOEUD N3
               _F(CRITERE='RELATIF',
                  NUME_ORDRE=1,
                  NOM_CHAM='SIGM_ELNO',
                  NOM_CMP='SIXX',
                  MAILLE='M1',
                  NOEUD= 'N3',
                  RESULTAT=RESNO,
                  VALE_CALC=-3.24913090144413E+03,
                  ),
               _F(CRITERE='RELATIF',
                  NUME_ORDRE=1,
                  NOM_CHAM='SIGM_ELNO',
                  NOM_CMP='SIYY',
                  MAILLE='M1',
                  NOEUD= 'N3',
                  RESULTAT=RESNO,
                  VALE_CALC=-3.24913090144413E+03,
                  ),
# TEST DE LA SYMETRIE XY ENTRE LES NOEUDS N2 ET N4
               _F(CRITERE='RELATIF',
                  NUME_ORDRE=1,
                  NOM_CHAM='SIGM_ELNO',
                  NOM_CMP='SIXX',
                  MAILLE='M1',
                  NOEUD= 'N2',
                  RESULTAT=RESNO,
                  VALE_CALC=1.31723350544619E+03,
                  ),
               _F(CRITERE='RELATIF',
                  NUME_ORDRE=1,
                  NOM_CHAM='SIGM_ELNO',
                  NOM_CMP='SIYY',
                  MAILLE='M1',
                  NOEUD= 'N4',
                  RESULTAT=RESNO,
                  VALE_CALC=1.31723350544619E+03,
                  ),
                  ),)
TEST_RESU(RESU=(
# TEST DE LA SYMETRIE ENTRE LES CMP KXX ET KYY AU NOEUD N3
               _F(CRITERE='RELATIF',
                  NUME_ORDRE=1,
                  NOM_CHAM='EFGE_ELNO',
                  NOM_CMP='MXX',
                  MAILLE='M1',
                  NOEUD= 'N3',
                  RESULTAT=RESU,
                  VALE_CALC=-5.35292790835132E+00,
                  ),
               _F(CRITERE='RELATIF',
                  NUME_ORDRE=1,
                  NOM_CHAM='EFGE_ELNO',
                  NOM_CMP='MYY',
                  MAILLE='M1',
                  NOEUD= 'N3',
                  RESULTAT=RESU,
                  VALE_CALC=-5.35292790835132E+00,
                  ),
# TEST DE LA SYMETRIE XY ENTRE LES NOEUDS N2 ET N4
               _F(CRITERE='RELATIF',
                  NUME_ORDRE=1,
                  NOM_CHAM='EFGE_ELNO',
                  NOM_CMP='MXX',
                  MAILLE='M1',
                  NOEUD= 'N2',
                  RESULTAT=RESU,
                  VALE_CALC=2.23176856262873E+00,
                  ),
               _F(CRITERE='RELATIF',
                  NUME_ORDRE=1,
                  NOM_CHAM='EFGE_ELNO',
                  NOM_CMP='MYY',
                  MAILLE='M1',
                  NOEUD= 'N4',
                  RESULTAT=RESU,
                  VALE_CALC=2.23176856262873E+00,
                  ),
# TEST DE LA SYMETRIE XY ENTRE LES NOEUDS N5 ET N8
               _F(CRITERE='RELATIF',
                  NUME_ORDRE=1,
                  NOM_CHAM='EFGE_ELNO',
                  NOM_CMP='MXX',
                  MAILLE='M1',
                  NOEUD= 'N8',
                  RESULTAT=RESU,
                  VALE_CALC=3.19286267210876E+00,
                  ),
               _F(CRITERE='RELATIF',
                  NUME_ORDRE=1,
                  NOM_CHAM='EFGE_ELNO',
                  NOM_CMP='MYY',
                  MAILLE='M1',
                  NOEUD= 'N5',
                  RESULTAT=RESU,
                  VALE_CALC=3.19286267210876E+00,
                  ),
                  ),)
TEST_RESU(RESU=(
# TEST DE LA SYMETRIE ENTRE LES CMP KXX ET KYY AU NOEUD N3
               _F(CRITERE='RELATIF',
                  NUME_ORDRE=1,
                  NOM_CHAM='DEGE_ELNO',
                  NOM_CMP='KXX',
                  MAILLE='M1',
                  NOEUD= 'N3',
                  RESULTAT=RESU,
                  VALE_CALC=-3.98621321974601E+03,
                  ),
               _F(CRITERE='RELATIF',
                  NUME_ORDRE=1,
                  NOM_CHAM='DEGE_ELNO',
                  NOM_CMP='KYY',
                  MAILLE='M1',
                  NOEUD= 'N3',
                  RESULTAT=RESU,
                  VALE_CALC=-3.98621321974601E+03,
                  ),
# TEST DE LA SYMETRIE XY ENTRE LES NOEUDS N2 ET N4
               _F(CRITERE='RELATIF',
                  NUME_ORDRE=1,
                  NOM_CHAM='DEGE_ELNO',
                  NOM_CMP='KXX',
                  MAILLE='M1',
                  NOEUD= 'N2',
                  RESULTAT=RESU,
                  VALE_CALC=1.63674169152518E+02,
                  ),
               _F(CRITERE='RELATIF',
                  NUME_ORDRE=1,
                  NOM_CHAM='DEGE_ELNO',
                  NOM_CMP='KYY',
                  MAILLE='M1',
                  NOEUD= 'N4',
                  RESULTAT=RESU,
                  VALE_CALC=1.63674169152518E+02,
                  ),
# TEST DE LA SYMETRIE XY ENTRE LES NOEUDS N5 ET N8
               _F(CRITERE='RELATIF',
                  NUME_ORDRE=1,
                  NOM_CHAM='DEGE_ELNO',
                  NOM_CMP='KXX',
                  MAILLE='M1',
                  NOEUD= 'N8',
                  RESULTAT=RESU,
                  VALE_CALC=1.66936840987919E+03,
                  ),
               _F(CRITERE='RELATIF',
                  NUME_ORDRE=1,
                  NOM_CHAM='DEGE_ELNO',
                  NOM_CMP='KYY',
                  MAILLE='M1',
                  NOEUD= 'N5',
                  RESULTAT=RESU,
                  VALE_CALC=1.66936840987919E+03,
                  ),
                  ),)
FIN()
