# TITRE VALIDATION DE LA VERIFICATION DES REPERES POUR LES POUTRES ET LES COQUES
#
# ======================================================================
# COPYRIGHT (C) 1991 - 2015  EDF R&D                  WWW.CODE-ASTER.ORG
# THIS PROGRAM IS FREE SOFTWARE; YOU CAN REDISTRIBUTE IT AND/OR MODIFY
# IT UNDER THE TERMS OF THE GNU GENERAL PUBLIC LICENSE AS PUBLISHED BY
# THE FREE SOFTWARE FOUNDATION; EITHER VERSION 2 OF THE LICENSE, OR
# (AT YOUR OPTION) ANY LATER VERSION.
#
# THIS PROGRAM IS DISTRIBUTED IN THE HOPE THAT IT WILL BE USEFUL, BUT
# WITHOUT ANY WARRANTY; WITHOUT EVEN THE IMPLIED WARRANTY OF
# MERCHANTABILITY OR FITNESS FOR A PARTICULAR PURPOSE. SEE THE GNU
# GENERAL PUBLIC LICENSE FOR MORE DETAILS.
#
# YOU SHOULD HAVE RECEIVED A COPY OF THE GNU GENERAL PUBLIC LICENSE
# ALONG WITH THIS PROGRAM; IF NOT, WRITE TO EDF R&D CODE_ASTER,
#    1 AVENUE DU GENERAL DE GAULLE, 92141 CLAMART CEDEX, FRANCE.
# ======================================================================

DEBUT(CODE=_F(NIV_PUB_WEB='INTERNET'),DEBUG=_F(SDVERI='OUI'))

MAIL=LIRE_MAILLAGE(FORMAT='MED',);

MATER=DEFI_MATERIAU(ELAS=_F(E=2.1e11,
                            NU=0.3,),);

AFFMAT=AFFE_MATERIAU(MAILLAGE=MAIL,
                     AFFE=_F(TOUT='OUI',
                             MATER=MATER,),);

AFFMOD=AFFE_MODELE(MAILLAGE=MAIL,
                   AFFE=_F(TOUT='OUI',
                           PHENOMENE='MECANIQUE',
                           MODELISATION='POU_D_E',),);

AFFCI=AFFE_CHAR_CINE(MODELE=AFFMOD,
                     MECA_IMPO=(_F(GROUP_NO='A',
                                   DX=0,
                                   DY=0,
                                   DZ=0,
                                   DRX=0,
                                   DRY=0,
                                   DRZ=0,),
                                _F(GROUP_NO='B',
                                   DX=0,
                                   DY=0,
                                   DZ=0,),
                                _F(GROUP_NO='C',
                                   DY=0.03,),),);

CAREL=AFFE_CARA_ELEM(MODELE=AFFMOD,
                     INFO=2,
                     POUTRE=_F(GROUP_MA='Tout',
                               SECTION='GENERALE',
                               CARA=('A','IY','IZ','JX','RY','RZ','RT',),
                               VALE=(0.02,0.166666666666E-4,0.666666666666E-4,0.45776E-4,0.1,0.05,0.0892632,),),
                     ORIENTATION=_F(GROUP_MA='Tout',
                                    CARA='ANGL_VRIL',
                                    VALE=(0.0,),),);

MESTA=MECA_STATIQUE(MODELE=AFFMOD,
                    CHAM_MATER=AFFMAT,
                    CARA_ELEM=CAREL,
                    EXCIT=_F(CHARGE=AFFCI,),);

MESTA=CALC_CHAMP(reuse=MESTA,
                 RESULTAT=MESTA,
                 CONTRAINTE=('EFGE_NOEU',),);

TEST_RESU(RESU=(_F(GROUP_NO='POINT',
                   INST=0.0,
                   RESULTAT=MESTA,
                   NOM_CHAM='DEPL',
                   NOM_CMP='DX',
                   VALE_CALC=2.5064053269599E-3,
                   ),
                _F(GROUP_NO='POINT',
                   INST=0.0,
                   RESULTAT=MESTA,
                   NOM_CHAM='DEPL',
                   NOM_CMP='DY',
                   VALE_CALC=0.018356988883787,
                   ),
                ),
          )

FIN();
