# MODIF  DATE 10/10/2012   AUTEUR COURTOIS M.COURTOIS 
# TITRE CALCUL DE FLUX THERMIQUE (2D PLAN_DIAG)
# zzzz166b.para = tps_job 60 mem_job 256Mo ncpus 1 liste_test S
#            CONFIGURATION MANAGEMENT OF EDF VERSION
# ======================================================================
# COPYRIGHT (C) 1991 - 2012  EDF R&D                  WWW.CODE-ASTER.ORG
# THIS PROGRAM IS FREE SOFTWARE; YOU CAN REDISTRIBUTE IT AND/OR MODIFY
# IT UNDER THE TERMS OF THE GNU GENERAL PUBLIC LICENSE AS PUBLISHED BY
# THE FREE SOFTWARE FOUNDATION; EITHER VERSION 2 OF THE LICENSE, OR
# (AT YOUR OPTION) ANY LATER VERSION.
#
# THIS PROGRAM IS DISTRIBUTED IN THE HOPE THAT IT WILL BE USEFUL, BUT
# WITHOUT ANY WARRANTY; WITHOUT EVEN THE IMPLIED WARRANTY OF
# MERCHANTABILITY OR FITNESS FOR A PARTICULAR PURPOSE. SEE THE GNU
# GENERAL PUBLIC LICENSE FOR MORE DETAILS.
#
# YOU SHOULD HAVE RECEIVED A COPY OF THE GNU GENERAL PUBLIC LICENSE
# ALONG WITH THIS PROGRAM; IF NOT, WRITE TO EDF R&D CODE_ASTER,
#    1 AVENUE DU GENERAL DE GAULLE, 92141 CLAMART CEDEX, FRANCE.
# ======================================================================
#
# ----------------------------------------------------------------------
# CALCUL DE FLUX THERMIQUE
# MODELISATION : ELEMENTS THERMIQUES PLAN_DIAG (QUAD4,TRIA3,TRIA6,QUAD9)
# ----------------------------------------------------------------------
#
DEBUT(CODE=_F(NOM='ZZZZ166B',NIV_PUB_WEB='INTERNET'),DEBUG=_F(SDVERI='OUI'))
#
MA=LIRE_MAILLAGE(FORMAT='MED',VERI_MAIL=_F(VERIF='OUI'),)
#
MAIL=CREA_MAILLAGE(MAILLAGE=MA,
                   MODI_MAILLE=_F(OPTION = 'QUAD8_9',
                                  GROUP_MA = 'SQU9')
                  )
#
MO=AFFE_MODELE(MAILLAGE=MAIL,
               AFFE=_F(TOUT = 'OUI',
                       PHENOMENE = 'THERMIQUE',
                       MODELISATION = 'PLAN_DIAG'))
#
MAT=DEFI_MATERIAU(THER=_F(LAMBDA = 1.0,
                          RHO_CP = 0.0))
#
CHMAT=AFFE_MATERIAU(MAILLAGE=MAIL,
                    AFFE=_F(TOUT = 'OUI',
                            MATER = MAT,
                            ))
#
#-----------------------------------------------------------------
# CHAMP DE TEMPERATURE LINEAIRE => FLUX CONSTANT
# ===============================================
FTEMPL = FORMULE(NOM_PARA=('X','Y'),VALE='2.*X +3.*Y')
#
CHTEMPL = CREA_CHAMP(OPERATION='AFFE',
                    TYPE_CHAM='NOEU_TEMP_F',
                    MAILLAGE=MAIL,
                    AFFE=_F(TOUT = 'OUI',
                            NOM_CMP = ('TEMP',),
                            VALE_F = (FTEMPL,))
                 )
#
RESUL = CREA_RESU(OPERATION='AFFE',
                 TYPE_RESU='EVOL_THER',
                 NOM_CHAM='TEMP',
                 AFFE=_F(CHAM_GD = CHTEMPL,
                         INST = 1.0,
                         MODELE=MO,
                         CHAM_MATER=CHMAT,)
                )
#
RESUL=CALC_CHAMP(reuse=RESUL,RESULTAT=RESUL,THERMIQUE=('FLUX_ELGA','FLUX_ELNO'))

#
# TEST TEMPERATURE :
TEST_RESU(RESU=(_F(GROUP_NO='A',
                   INST=1.0,
                   REFERENCE='ANALYTIQUE',
                   RESULTAT=RESUL,
                   NOM_CHAM='TEMP',
                   NOM_CMP='TEMP',
                   VALE_CALC=3.500000000,
                   VALE_REFE=3.5,
                   PRECISION=1.E-3,),
                _F(GROUP_NO='C',
                   INST=1.0,
                   REFERENCE='ANALYTIQUE',
                   RESULTAT=RESUL,
                   NOM_CHAM='TEMP',
                   NOM_CMP='TEMP',
                   VALE_CALC=11.500000000,
                   VALE_REFE=11.5,
                   PRECISION=1.E-3,),
                _F(GROUP_NO='J',
                   INST=1.0,
                   REFERENCE='ANALYTIQUE',
                   RESULTAT=RESUL,
                   NOM_CHAM='TEMP',
                   NOM_CMP='TEMP',
                   VALE_CALC=17.000000000,
                   VALE_REFE=17.0,
                   PRECISION=1.E-3,),
                _F(GROUP_NO='L',
                   INST=1.0,
                   REFERENCE='ANALYTIQUE',
                   RESULTAT=RESUL,
                   NOM_CHAM='TEMP',
                   NOM_CMP='TEMP',
                   VALE_CALC=25.000000000,
                   VALE_REFE=25.0,
                   PRECISION=1.E-3,),
                ),
          )

#
# TEST FLUX_ELGA :
TEST_RESU(RESU=(_F(INST=1.0,
                   REFERENCE='ANALYTIQUE',
                   POINT=1,
                   RESULTAT=RESUL,
                   NOM_CHAM='FLUX_ELGA',
                   NOM_CMP='FLUX',
                   VALE_CALC=-2.000000000,
                   VALE_REFE=-2.0,
                   PRECISION=1.E-3,
                   MAILLE='M1',),
                _F(INST=1.0,
                   REFERENCE='ANALYTIQUE',
                   POINT=1,
                   RESULTAT=RESUL,
                   NOM_CHAM='FLUX_ELGA',
                   NOM_CMP='FLUY',
                   VALE_CALC=-3.000000000,
                   VALE_REFE=-3.0,
                   PRECISION=1.E-3,
                   MAILLE='M1',),
                _F(INST=1.0,
                   REFERENCE='ANALYTIQUE',
                   POINT=1,
                   RESULTAT=RESUL,
                   NOM_CHAM='FLUX_ELGA',
                   NOM_CMP='FLUX',
                   VALE_CALC=-2.000000000,
                   VALE_REFE=-2.0,
                   PRECISION=1.E-3,
                   MAILLE='M820',),
                _F(INST=1.0,
                   REFERENCE='ANALYTIQUE',
                   POINT=1,
                   RESULTAT=RESUL,
                   NOM_CHAM='FLUX_ELGA',
                   NOM_CMP='FLUY',
                   VALE_CALC=-3.000000000,
                   VALE_REFE=-3.0,
                   PRECISION=1.E-3,
                   MAILLE='M820',),
                _F(INST=1.0,
                   REFERENCE='ANALYTIQUE',
                   POINT=1,
                   RESULTAT=RESUL,
                   NOM_CHAM='FLUX_ELGA',
                   NOM_CMP='FLUX',
                   VALE_CALC=-2.000000000,
                   VALE_REFE=-2.0,
                   PRECISION=1.E-3,
                   MAILLE='M1581',),
                _F(INST=1.0,
                   REFERENCE='ANALYTIQUE',
                   POINT=1,
                   RESULTAT=RESUL,
                   NOM_CHAM='FLUX_ELGA',
                   NOM_CMP='FLUY',
                   VALE_CALC=-3.000000000,
                   VALE_REFE=-3.0,
                   PRECISION=1.E-3,
                   MAILLE='M1581',),
                _F(INST=1.0,
                   REFERENCE='ANALYTIQUE',
                   POINT=1,
                   RESULTAT=RESUL,
                   NOM_CHAM='FLUX_ELGA',
                   NOM_CMP='FLUX',
                   VALE_CALC=-2.000000000,
                   VALE_REFE=-2.0,
                   PRECISION=1.E-3,
                   MAILLE='M2400',),
                _F(INST=1.0,
                   REFERENCE='ANALYTIQUE',
                   POINT=1,
                   RESULTAT=RESUL,
                   NOM_CHAM='FLUX_ELGA',
                   NOM_CMP='FLUY',
                   VALE_CALC=-3.000000000,
                   VALE_REFE=-3.0,
                   PRECISION=1.E-3,
                   MAILLE='M2400',),
                ),
          )

#
# TEST FLUX_ELNO :
TEST_RESU(RESU=(_F(GROUP_NO='A',
                   INST=1.0,
                   REFERENCE='ANALYTIQUE',
                   RESULTAT=RESUL,
                   NOM_CHAM='FLUX_ELNO',
                   NOM_CMP='FLUX',
                   VALE_CALC=-2.000000000,
                   VALE_REFE=-2.0,
                   PRECISION=1.E-3,
                   MAILLE='M1',),
                _F(GROUP_NO='A',
                   INST=1.0,
                   REFERENCE='ANALYTIQUE',
                   RESULTAT=RESUL,
                   NOM_CHAM='FLUX_ELNO',
                   NOM_CMP='FLUY',
                   VALE_CALC=-3.000000000,
                   VALE_REFE=-3.0,
                   PRECISION=1.E-3,
                   MAILLE='M1',),
                _F(GROUP_NO='C',
                   INST=1.0,
                   REFERENCE='ANALYTIQUE',
                   RESULTAT=RESUL,
                   NOM_CHAM='FLUX_ELNO',
                   NOM_CMP='FLUX',
                   VALE_CALC=-2.000000000,
                   VALE_REFE=-2.0,
                   PRECISION=1.E-3,
                   MAILLE='M820',),
                _F(GROUP_NO='C',
                   INST=1.0,
                   REFERENCE='ANALYTIQUE',
                   RESULTAT=RESUL,
                   NOM_CHAM='FLUX_ELNO',
                   NOM_CMP='FLUY',
                   VALE_CALC=-3.000000000,
                   VALE_REFE=-3.0,
                   PRECISION=1.E-3,
                   MAILLE='M820',),
                _F(GROUP_NO='J',
                   INST=1.0,
                   REFERENCE='ANALYTIQUE',
                   RESULTAT=RESUL,
                   NOM_CHAM='FLUX_ELNO',
                   NOM_CMP='FLUX',
                   VALE_CALC=-2.000000000,
                   VALE_REFE=-2.0,
                   PRECISION=1.E-3,
                   MAILLE='M1581',),
                _F(GROUP_NO='J',
                   INST=1.0,
                   REFERENCE='ANALYTIQUE',
                   RESULTAT=RESUL,
                   NOM_CHAM='FLUX_ELNO',
                   NOM_CMP='FLUY',
                   VALE_CALC=-3.000000000,
                   VALE_REFE=-3.0,
                   PRECISION=1.E-3,
                   MAILLE='M1581',),
                _F(GROUP_NO='L',
                   INST=1.0,
                   REFERENCE='ANALYTIQUE',
                   RESULTAT=RESUL,
                   NOM_CHAM='FLUX_ELNO',
                   NOM_CMP='FLUX',
                   VALE_CALC=-2.000000000,
                   VALE_REFE=-2.0,
                   PRECISION=1.E-3,
                   MAILLE='M2400',),
                _F(GROUP_NO='L',
                   INST=1.0,
                   REFERENCE='ANALYTIQUE',
                   RESULTAT=RESUL,
                   NOM_CHAM='FLUX_ELNO',
                   NOM_CMP='FLUY',
                   VALE_CALC=-3.000000000,
                   VALE_REFE=-3.0,
                   PRECISION=1.E-3,
                   MAILLE='M2400',),
                ),
          )

#
#
#-----------------------------------------------------------------
# CHAMP DE TEMPERATURE QUADRATIQUE => FLUX LINEAIRE
# ==================================================
FTEMPQ = FORMULE(NOM_PARA=('X','Y'),VALE=' 2.*X*X +3.*Y*Y')
#
CHTEMPQ = CREA_CHAMP(OPERATION='AFFE',
                    TYPE_CHAM='NOEU_TEMP_F',
                    MAILLAGE=MAIL,
                    AFFE=_F(TOUT = 'OUI',
                            NOM_CMP = ('TEMP',),
                            VALE_F = (FTEMPQ,))
                 )
#
RESUQ = CREA_RESU(OPERATION='AFFE',
                 TYPE_RESU='EVOL_THER',
                 NOM_CHAM='TEMP',
                 AFFE=_F(CHAM_GD = CHTEMPQ,
                         INST = 1.0,
                         MODELE=MO,
                         CHAM_MATER=CHMAT,)
                )
#
RESUQ=CALC_CHAMP(reuse=RESUQ,RESULTAT=RESUQ,THERMIQUE=('FLUX_ELGA','FLUX_ELNO'))

#
# TEST TEMPERATURE :
TEST_RESU(RESU=(_F(GROUP_NO='A',
                   INST=1.0,
                   REFERENCE='ANALYTIQUE',
                   RESULTAT=RESUQ,
                   NOM_CHAM='TEMP',
                   NOM_CMP='TEMP',
                   VALE_CALC=2.750000000,
                   VALE_REFE=2.75,
                   PRECISION=1.E-3,),
                _F(GROUP_NO='C',
                   INST=1.0,
                   REFERENCE='ANALYTIQUE',
                   RESULTAT=RESUQ,
                   NOM_CHAM='TEMP',
                   NOM_CMP='TEMP',
                   VALE_CALC=50.750000000,
                   VALE_REFE=50.75,
                   PRECISION=1.E-3,),
                _F(GROUP_NO='J',
                   INST=1.0,
                   REFERENCE='ANALYTIQUE',
                   RESULTAT=RESUQ,
                   NOM_CHAM='TEMP',
                   NOM_CMP='TEMP',
                   VALE_CALC=77.000000000,
                   VALE_REFE=77.0,
                   PRECISION=1.E-3,),
                _F(GROUP_NO='L',
                   INST=1.0,
                   REFERENCE='ANALYTIQUE',
                   RESULTAT=RESUQ,
                   NOM_CHAM='TEMP',
                   NOM_CMP='TEMP',
                   VALE_CALC=125.000000000,
                   VALE_REFE=125.0,
                   PRECISION=1.E-3,),
                ),
          )

#
# TEST FLUX_ELNO :
TEST_RESU(RESU=(_F(GROUP_NO='A',
                   INST=1.0,
                   REFERENCE='ANALYTIQUE',
                   RESULTAT=RESUQ,
                   NOM_CHAM='FLUX_ELNO',
                   NOM_CMP='FLUX',
                   VALE_CALC=-4.000000000,
                   VALE_REFE=-4.0,
                   PRECISION=0.055,
                   MAILLE='M1',),
                _F(GROUP_NO='A',
                   INST=1.0,
                   REFERENCE='ANALYTIQUE',
                   RESULTAT=RESUQ,
                   NOM_CHAM='FLUX_ELNO',
                   NOM_CMP='FLUY',
                   VALE_CALC=-3.000000000,
                   VALE_REFE=-3.0,
                   PRECISION=0.105,
                   MAILLE='M1',),
                _F(GROUP_NO='C',
                   INST=1.0,
                   REFERENCE='ANALYTIQUE',
                   RESULTAT=RESUQ,
                   NOM_CHAM='FLUX_ELNO',
                   NOM_CMP='FLUX',
                   VALE_CALC=-20.000000000,
                   VALE_REFE=-20.0,
                   PRECISION=0.014999999999999999,
                   MAILLE='M820',),
                _F(GROUP_NO='C',
                   INST=1.0,
                   REFERENCE='ANALYTIQUE',
                   RESULTAT=RESUQ,
                   NOM_CHAM='FLUX_ELNO',
                   NOM_CMP='FLUY',
                   VALE_CALC=-3.000000000,
                   VALE_REFE=-3.0,
                   PRECISION=0.105,
                   MAILLE='M820',),
                _F(GROUP_NO='J',
                   INST=1.0,
                   REFERENCE='ANALYTIQUE',
                   RESULTAT=RESUQ,
                   NOM_CHAM='FLUX_ELNO',
                   NOM_CMP='FLUX',
                   VALE_CALC=-4.200000000,
                   VALE_REFE=-4.0,
                   PRECISION=0.055,
                   MAILLE='M1581',),
                _F(GROUP_NO='J',
                   INST=1.0,
                   REFERENCE='ANALYTIQUE',
                   RESULTAT=RESUQ,
                   NOM_CHAM='FLUX_ELNO',
                   NOM_CMP='FLUY',
                   VALE_CALC=-29.700000000,
                   VALE_REFE=-30.0,
                   PRECISION=0.014999999999999999,
                   MAILLE='M1581',),
                _F(GROUP_NO='L',
                   INST=1.0,
                   REFERENCE='ANALYTIQUE',
                   RESULTAT=RESUQ,
                   NOM_CHAM='FLUX_ELNO',
                   NOM_CMP='FLUX',
                   VALE_CALC=-19.800000000,
                   VALE_REFE=-20.0,
                   PRECISION=0.014999999999999999,
                   MAILLE='M2400',),
                _F(GROUP_NO='L',
                   INST=1.0,
                   REFERENCE='ANALYTIQUE',
                   RESULTAT=RESUQ,
                   NOM_CHAM='FLUX_ELNO',
                   NOM_CMP='FLUY',
                   VALE_CALC=-29.700000000,
                   VALE_REFE=-30.0,
                   PRECISION=0.014999999999999999,
                   MAILLE='M2400',),
                ),
          )

#
FIN( )
#
