# ======================================================================
# COPYRIGHT (C) 1991 - 2016  EDF R&D                  WWW.CODE-ASTER.ORG
# THIS PROGRAM IS FREE SOFTWARE; YOU CAN REDISTRIBUTE IT AND/OR MODIFY
# IT UNDER THE TERMS OF THE GNU GENERAL PUBLIC LICENSE AS PUBLISHED BY
# THE FREE SOFTWARE FOUNDATION; EITHER VERSION 2 OF THE LICENSE, OR
# (AT YOUR OPTION) ANY LATER VERSION.
#
# THIS PROGRAM IS DISTRIBUTED IN THE HOPE THAT IT WILL BE USEFUL, BUT
# WITHOUT ANY WARRANTY; WITHOUT EVEN THE IMPLIED WARRANTY OF
# MERCHANTABILITY OR FITNESS FOR A PARTICULAR PURPOSE. SEE THE GNU
# GENERAL PUBLIC LICENSE FOR MORE DETAILS.
#
# YOU SHOULD HAVE RECEIVED A COPY OF THE GNU GENERAL PUBLIC LICENSE
# ALONG WITH THIS PROGRAM; IF NOT, WRITE TO EDF R&D CODE_ASTER,
#    1 AVENUE DU GENERAL DE GAULLE, 92141 CLAMART CEDEX, FRANCE.
# ======================================================================

DEBUT(CODE=_F(NIV_PUB_WEB='INTERNET'),DEBUG=_F(SDVERI='OUI'))

MA=LIRE_MAILLAGE()


BETON=DEFI_MATERIAU(ELAS=_F(E = 1.E9,NU = 0.3,),)

MATAF=AFFE_MATERIAU(MAILLAGE=MA,
                    AFFE=(_F(MAILLE = 'M1',
                             MATER = BETON,)))

LEMOD=AFFE_MODELE(MAILLAGE=MA,     
                  AFFE=(_F(MAILLE = 'M1',
                           PHENOMENE = 'MECANIQUE',
                           MODELISATION = 'DKT',)))


LACAR=AFFE_CARA_ELEM(MODELE=LEMOD,
                     COQUE=(_F(MAILLE = 'M1',
                               EPAIS = .2,
                               ANGL_REP = (0.0, 0.0,),),),)


ZCHM=AFFE_CHAR_MECA(MODELE=LEMOD,
                    DDL_IMPO=(_F(NOEUD = ('N1',),
                                 DX = 0., 
                                 DY=0., DZ = 0., 
                                 ),
                              _F(NOEUD = ('N2','N3',),
                                 DZ = 0., 
                                 ),
                              _F(NOEUD = ('N4'),
                                 DX = 0., 
                                 ),
                             ),
                    PRE_EPSI = _F(MAILLE = 'M1',
                                  EXX     = 1.E-3,
                                  EYY     = 2.E-3,
                                  EXY     = 3.E-3,
                                  KXX     = 4.E-3,
                                  KYY     = 5.E-3,
                                  KXY     = 6.E-3,
                                  )

            )
#
# ----------------------------------------------
# CALCUL
# ----------------------------------------------
#


ZLIST=DEFI_LIST_REEL(   DEBUT=0.,
             INTERVALLE=_F( JUSQU_A = 1.0,  NOMBRE = 1, )
           )

LEDEP=STAT_NON_LINE(MODELE=LEMOD,
                    CHAM_MATER=MATAF,
                    CARA_ELEM=LACAR,
                    EXCIT=_F(CHARGE = ZCHM,),
                    COMPORTEMENT=_F(RELATION = 'ELAS',),
                    INCREMENT=_F(LIST_INST = ZLIST,),
                   )


LEDEP=CALC_CHAMP(reuse =LEDEP,
                 RESULTAT=LEDEP,
                 DEFORMATION=('DEGE_ELGA'),
                 );

IMPR_RESU(RESU=_F(RESULTAT=LEDEP, INST = 1.0, NOM_CHAM=('DEGE_ELGA')))

TEST_RESU(RESU=(_F(MAILLE='M1',
                   POINT = 1,
                   CRITERE='RELATIF',
                   INST = 1.0,
                   REFERENCE='ANALYTIQUE',
                   NOM_CMP='EXX',
                   RESULTAT=LEDEP,
                   NOM_CHAM='DEGE_ELGA',
                   VALE_CALC=1E-3,
                   VALE_REFE=1E-3,),
                _F(MAILLE='M1',
                   POINT = 1,
                   CRITERE='RELATIF',
                   INST = 1.0,
                   REFERENCE='ANALYTIQUE',
                   NOM_CMP='EYY',
                   RESULTAT=LEDEP,
                   NOM_CHAM='DEGE_ELGA',
                   VALE_CALC=2E-3,
                   VALE_REFE=2E-3,),
                _F(MAILLE='M1',
                   POINT = 1,
                   CRITERE='RELATIF',
                   INST = 1.0,
                   REFERENCE='ANALYTIQUE',
                   NOM_CMP='EXY',
                   RESULTAT=LEDEP,
                   NOM_CHAM='DEGE_ELGA',
                   VALE_CALC=3E-3,
                   VALE_REFE=3E-3,),
                _F(MAILLE='M1',
                   POINT = 1,
                   CRITERE='RELATIF',
                   INST = 1.0,
                   REFERENCE='ANALYTIQUE',
                   NOM_CMP='KXX',
                   RESULTAT=LEDEP,
                   NOM_CHAM='DEGE_ELGA',
                   VALE_CALC=4E-3,
                   VALE_REFE=4E-3,),
                _F(MAILLE='M1',
                   POINT = 1,
                   CRITERE='RELATIF',
                   INST = 1.0,
                   REFERENCE='ANALYTIQUE',
                   NOM_CMP='KYY',
                   RESULTAT=LEDEP,
                   NOM_CHAM='DEGE_ELGA',
                   VALE_CALC=5E-3,
                   VALE_REFE=5E-3,),
                _F(MAILLE='M1',
                   POINT = 1,
                   CRITERE='RELATIF',
                   INST = 1.0,
                   REFERENCE='ANALYTIQUE',
                   NOM_CMP='KXY',
                   RESULTAT=LEDEP,
                   NOM_CHAM='DEGE_ELGA',
                   VALE_CALC=6E-3,
                   VALE_REFE=6E-3,),
               ),
          )


FIN()
#
