# ======================================================================
# COPYRIGHT (C) 1991 - 2016  EDF R&D                  WWW.CODE-ASTER.ORG
# THIS PROGRAM IS FREE SOFTWARE; YOU CAN REDISTRIBUTE IT AND/OR MODIFY
# IT UNDER THE TERMS OF THE GNU GENERAL PUBLIC LICENSE AS PUBLISHED BY
# THE FREE SOFTWARE FOUNDATION; EITHER VERSION 2 OF THE LICENSE, OR
# (AT YOUR OPTION) ANY LATER VERSION.
#
# THIS PROGRAM IS DISTRIBUTED IN THE HOPE THAT IT WILL BE USEFUL, BUT
# WITHOUT ANY WARRANTY; WITHOUT EVEN THE IMPLIED WARRANTY OF
# MERCHANTABILITY OR FITNESS FOR A PARTICULAR PURPOSE. SEE THE GNU
# GENERAL PUBLIC LICENSE FOR MORE DETAILS.
#
# YOU SHOULD HAVE RECEIVED A COPY OF THE GNU GENERAL PUBLIC LICENSE
# ALONG WITH THIS PROGRAM; IF NOT, WRITE TO EDF R&D CODE_ASTER,
#    1 AVENUE DU GENERAL DE GAULLE, 92141 CLAMART CEDEX, FRANCE.
# ======================================================================
# person_in_charge: mickael.abbas at edf.fr

DEBUT(CODE=_F(NIV_PUB_WEB='INTERNET',),);

MAIL=LIRE_MAILLAGE(FORMAT='MED',);


MOD=AFFE_MODELE(MAILLAGE=MAIL,
                  AFFE=_F(GROUP_MA='POUTRE',
                          PHENOMENE='MECANIQUE',
                          MODELISATION='D_PLAN',),)


BETON=DEFI_MATERIAU(ELAS=_F(E=200000000000.0,
                            NU=0.3,
                            ALPHA = 0.02),
                   )

TEMP1=CREA_CHAMP(OPERATION='AFFE',
                 TYPE_CHAM='NOEU_TEMP_R',
                 MAILLAGE=MAIL,
                 AFFE=_F( GROUP_MA='POUTRE',
                          NOM_CMP = ('TEMP',),
                          VALE =50.,
                        )
                )


CHMAT=AFFE_MATERIAU(MAILLAGE=MAIL,
                       AFFE=_F(TOUT='OUI',
                               MATER=BETON,),
                    AFFE_VARC=_F(GROUP_MA = 'POUTRE', 
                                 NOM_VARC = 'TEMP', 
                                 CHAM_GD=TEMP1, 
                                 VALE_REF=0.),
                   )

BLOQ=AFFE_CHAR_MECA(MODELE=MOD,
                     DDL_IMPO=(_F(GROUP_MA=('ENCNEG','ENCPOS'),
                                  DX=0.0,
                                  DY=0.0,
                                  ),),
                               );

LIS_INST=DEFI_LIST_REEL(DEBUT=0.0,
                        INTERVALLE=(_F(JUSQU_A=1.0,
                                       NOMBRE=1,),
                                    ),)

RESUREF=STAT_NON_LINE(MODELE=MOD,
                       CHAM_MATER=CHMAT,
                       EXCIT=(_F(CHARGE=BLOQ,),
                             ),
                       COMPORTEMENT=_F(RELATION='ELAS',
                                    ),
                       INCREMENT=_F(LIST_INST=LIS_INST,),
                       NEWTON=_F(MATRICE='ELASTIQUE',
                                 REAC_ITER=1,),
                       );

IMPR_RESU(RESU=_F(RESULTAT=RESUREF, NOM_CHAM = 'SIEF_ELGA', INST = 1.0,))



TEST_RESU(RESU=(_F(INST=1.0,
                   RESULTAT=RESUREF,
                   VALE_CALC=-2.96705183243074E+11,
                   NOM_CHAM = "SIEF_ELGA",
                   MAILLE = 'M30',
                   POINT = 1,
                   NOM_CMP = 'SIXX',
                   ),
                _F(INST=1.0,
                   RESULTAT=RESUREF,
                   VALE_CALC=-7.74128502855593E+09,
                   NOM_CHAM = "SIEF_ELGA",
                   MAILLE = 'M31',
                   POINT = 3,
                   NOM_CMP = 'SIXY',
                   ),
                ),
          )

MODMACR=AFFE_MODELE(MAILLAGE=MAIL,
                  AFFE=_F(GROUP_MA=('MACREL',
                                    ),
                          PHENOMENE='MECANIQUE',
                          MODELISATION='D_PLAN',),)

BLOQMACR=AFFE_CHAR_MECA(MODELE=MODMACR,
                     DDL_IMPO=(_F(
                                  GROUP_MA=('ENCNEG',),
                                  DX=0.0,
                                  DY=0.0,
                                  ),),
                               );

MACSS=MACR_ELEM_STAT(DEFINITION=_F(MODELE=MODMACR,
                                   CHAM_MATER=CHMAT,
                                   CHAR_MACR_ELEM=BLOQMACR,),
                     EXTERIEUR=_F(GROUP_NO=('EXTERNE')),
                     RIGI_MECA=_F(),
                     CAS_CHARGE=_F(NOM_CAS='K1',
                                   SUIV='OUI',
                                   CHARGE=BLOQMACR,),);
                                   
MAYSS=DEFI_MAILLAGE(DEFI_SUPER_MAILLE=_F(MACR_ELEM=MACSS,
                                        SUPER_MAILLE='MAILLE1',),
                    DEFI_NOEUD=_F(TOUT='OUI',
                    INDEX=(1,0,1,8,),),
                                  );

MAG=ASSE_MAILLAGE(MAILLAGE_1=MAIL,
                  MAILLAGE_2=MAYSS,
                  OPERATION='SOUS_STR',);


TEMPMACR=CREA_CHAMP(OPERATION='AFFE',
                    TYPE_CHAM='NOEU_TEMP_R',
                    MAILLAGE=MAG,
                    AFFE=_F( TOUT='OUI',
                             NOM_CMP = ('TEMP',),
                             VALE =50.,
                        )
                )

CHMAT2=AFFE_MATERIAU(MAILLAGE=MAG,
                    AFFE=(_F(TOUT='OUI',
                            MATER=BETON,),
                          ),
                    AFFE_VARC=_F(#TOUT = 'OUI', 
# memes resultats que l'on affecte sur TOUT ou sur POUPOS 
# (la partie de la poutre hors du macro element)
                                 GROUP_MA = 'POUPOS',
                                 NOM_VARC = 'TEMP', 
                                 CHAM_GD=TEMPMACR, 
                                 VALE_REF=0.),
                    )

MOMACR=AFFE_MODELE(MAILLAGE=MAG,
               AFFE_SOUS_STRUC=_F(SUPER_MAILLE='MAILLE1',
                                  PHENOMENE='MECANIQUE',),
               AFFE=_F(GROUP_MA=('POUPOS',),
                       PHENOMENE='MECANIQUE',
                       MODELISATION='D_PLAN',),);


ENCAST2=AFFE_CHAR_MECA(MODELE=MOMACR,
                      DDL_IMPO=_F(GROUP_MA='ENCPOS',
                                  DX=0.0,
                                  DY=0.0,
                                  ),);

RESUMACR=STAT_NON_LINE(MODELE=MOMACR,
                CHAM_MATER=CHMAT2,
                EXCIT=(
                        _F(CHARGE=ENCAST2,),
                      ),
                SOUS_STRUC=_F(CAS_CHARGE='K1',
                           SUPER_MAILLE='MAILLE1',),
                COMPORTEMENT=(_F(RELATION='ELAS',
                              TOUT='OUI',),
                          ),
                INCREMENT=_F(LIST_INST=LIS_INST,),
                NEWTON=_F(MATRICE='ELASTIQUE',
                          REAC_ITER=1,),
                INFO=1,);

IMPR_RESU(RESU=_F(RESULTAT=RESUMACR, NOM_CHAM = 'SIEF_ELGA', INST = 1.0,))

TEST_RESU(RESU=(_F(INST=1.0,
                   RESULTAT=RESUMACR,
                   REFERENCE = 'AUTRE_ASTER',
                   VALE_REFE = -2.96705183243074E+11,
                   VALE_CALC=-2.96705183243074E+11,
                   NOM_CHAM = "SIEF_ELGA",
                   MAILLE = 'M30',
                   POINT = 1,
                   NOM_CMP = 'SIXX',
                   ),
                _F(INST=1.0,
                   RESULTAT=RESUMACR,
                   REFERENCE = 'AUTRE_ASTER',
                   VALE_REFE = -7.74128502855593E+09,
                   VALE_CALC=-7.74128502855593E+09,
                   NOM_CHAM = "SIEF_ELGA",
                   MAILLE = 'M31',
                   POINT = 3,
                   NOM_CMP = 'SIXY',
                   ),
                ),
          )



FIN();
