# TITRE VALIDATION DE AFFE_CHAR_MECA/EVOL_CHAR (DE TYPE PRESSION)
#                   + AFFE_CHAR_MECA/PRES_REP
#                   + AFFE_CHAR_MECA/FORCE_CONTOUR

# ======================================================================
# COPYRIGHT (C) 1991 - 2013  EDF R&D                  WWW.CODE-ASTER.ORG
# THIS PROGRAM IS FREE SOFTWARE; YOU CAN REDISTRIBUTE IT AND/OR MODIFY
# IT UNDER THE TERMS OF THE GNU GENERAL PUBLIC LICENSE AS PUBLISHED BY
# THE FREE SOFTWARE FOUNDATION; EITHER VERSION 2 OF THE LICENSE, OR
# (AT YOUR OPTION) ANY LATER VERSION.
#
# THIS PROGRAM IS DISTRIBUTED IN THE HOPE THAT IT WILL BE USEFUL, BUT
# WITHOUT ANY WARRANTY; WITHOUT EVEN THE IMPLIED WARRANTY OF
# MERCHANTABILITY OR FITNESS FOR A PARTICULAR PURPOSE. SEE THE GNU
# GENERAL PUBLIC LICENSE FOR MORE DETAILS.
#
# YOU SHOULD HAVE RECEIVED A COPY OF THE GNU GENERAL PUBLIC LICENSE
# ALONG WITH THIS PROGRAM; IF NOT, WRITE TO EDF R&D CODE_ASTER,
#    1 AVENUE DU GENERAL DE GAULLE, 92141 CLAMART CEDEX, FRANCE.
# ======================================================================

#----------------------------------------------------------------------------------
# description du test :
#----------------------
# 1) On lit (au format IDEAS) un evol_char de type "pression" (PRESLU):
#     - pour les mailles M15 et M16 (groupe_ma='CD'):
#         - t=0.0 , p=0.0
#         - t=1.0 , p=4.0
#     - pour les autres mailles : p=0.0
#
# 2) On definit 2 fonctions F1 et F2 telles que :
#     F1(t=1)=2.
#     F2(t=1)=3.
#
# 3) On definit des chargements repartis equivalents a des pressions :
#    CH1 : sur CD : p=1 + p=4
#    CH2 : sur CD : p=3 + p=4 + p=2
#
# 4) on applique tous ces chargements sur le haut d'un cylindre (et on bloque sa base):
#    La pression totale appliquee en haut vaut donc :
#      F1*CH1 + F2*CH2 = 2*(1+4) + 3*(3+4+2) = 37.
#    Le materiau est elastique : E=1, NU=0
#    La solution est alors homogene : DY= 37 car le cylindre est haut de 1.
#
# 5) on verifie que la solution est bonne avec tous les mecaniques :
#    MECA_STATIQUE, STAT_NON_LINE, DYNA_NON_LINE, DYNA_VIBRA
#----------------------------------------------------------------------------------

DEBUT(CODE=_F(NIV_PUB_WEB='INTERNET'), DEBUG=_F(SDVERI='OUI'))

PRE_IDEAS(UNITE_IDEAS=19,UNITE_MAILLAGE=20)

MA=LIRE_MAILLAGE(UNITE=20)

MO=AFFE_MODELE(  MAILLAGE=MA,
         AFFE=_F(  TOUT = 'OUI',PHENOMENE = 'MECANIQUE',
                           MODELISATION = 'AXIS'))

MAT=DEFI_MATERIAU(ELAS=_F( E = 1.,  NU = 0.0, RHO = 1.E-7))

CHMAT=AFFE_MATERIAU(  MAILLAGE=MA,
                        AFFE=_F(  TOUT = 'OUI', MATER = MAT))

LINST=DEFI_LIST_REEL(VALE=( 0., 1.,))

F1=DEFI_FONCTION(NOM_PARA='INST', VALE=(0., 0., 10., 20.,))

F2=DEFI_FONCTION(NOM_PARA='INST', VALE=(0., 0., 10., 30.,))

PRESLU=LIRE_RESU(      MODELE=MO,     UNITE=37,
                              FORMAT='IDEAS',     TYPE_RESU='EVOL_CHAR',
                            NOM_CHAM=('PRES',),   TOUT_ORDRE='OUI',
                        FORMAT_IDEAS=_F(     NOM_CHAM = 'PRES',
                             NUME_DATASET = 57,
                                       RECORD_6 = ( 1, 4, 1, 15, 2, 1, ),
                             POSI_ORDRE = ( 7, 4,),
                             POSI_INST = ( 8, 1,),
                             NOM_CMP = ('PRES',))
                      )


TEST_RESU(RESU=_F(NUME_ORDRE=2,
                  REFERENCE='ANALYTIQUE',
                  RESULTAT=PRESLU,
                  NOM_CHAM='PRES',
                  NOEUD='N3',
                  NOM_CMP='PRES',
                  VALE_CALC=4.000000000,
                  VALE_REFE=4.0,
                  PRECISION=9.9999999999999995E-07,
                  MAILLE='M15',),
          )

CH0=AFFE_CHAR_MECA(  MODELE=MO,
           DDL_IMPO=_F(  GROUP_MA = 'AB',   DY = 0.) )

CH1=AFFE_CHAR_MECA(  MODELE=MO,
         PRES_REP=_F(  GROUP_MA = 'CD',   PRES = 1.),
           EVOL_CHAR=PRESLU    )

CH2=AFFE_CHAR_MECA(  MODELE=MO,
         PRES_REP=_F(  GROUP_MA = 'CD',   PRES = 3.),
         FORCE_CONTOUR=_F(  GROUP_MA = 'CD',   FY = -2.),
           EVOL_CHAR=PRESLU
         )

# 1) VALIDATION DE EVOL_CHAR (DE TYPE PRESSION) AVEC MECA_STATIQUE :
# ------------------------------------------------------------------
U1=MECA_STATIQUE(       MODELE=MO,   CHAM_MATER=CHMAT,
           LIST_INST=LINST,EXCIT=(
              _F( CHARGE = CH0),
              _F( CHARGE = CH1, FONC_MULT = F1),
              _F( CHARGE = CH2, FONC_MULT = F2))
                        )

TEST_RESU(RESU=_F(INST=1.0,
                  REFERENCE='ANALYTIQUE',
                  RESULTAT=U1,
                  NOM_CHAM='DEPL',
                  NOEUD='N1',
                  NOM_CMP='DY',
                  VALE_CALC=-37.000000000,
                  VALE_REFE=-37.0,
                  PRECISION=9.9999999999999995E-07,),
          )

# 2) VALIDATION DE EVOL_CHAR (DE TYPE PRESSION) AVEC STAT_NON_LINE :
# ----------------------------------------------------------------
U2=STAT_NON_LINE(       MODELE=MO,   CHAM_MATER=CHMAT,
           INCREMENT=_F( LIST_INST = LINST),EXCIT=(
              _F( CHARGE = CH0),
              _F( CHARGE = CH1, FONC_MULT = F1),
              _F( CHARGE = CH2, FONC_MULT = F2)),
           COMPORTEMENT=_F( TOUT = 'OUI', RELATION = 'ELAS')
                        )

TEST_RESU(RESU=_F(INST=1.0,
                  REFERENCE='ANALYTIQUE',
                  RESULTAT=U2,
                  NOM_CHAM='DEPL',
                  NOEUD='N1',
                  NOM_CMP='DY',
                  VALE_CALC=-37.000000000,
                  VALE_REFE=-37.0,
                  PRECISION=9.9999999999999995E-07,),
          )

# 3) VALIDATION DE EVOL_CHAR (DE TYPE PRESSION) AVEC DYNA_NON_LINE :
# ------------------------------------------------------------------
U3=DYNA_NON_LINE(       MODELE=MO,   CHAM_MATER=CHMAT,
           INCREMENT=_F( LIST_INST = LINST),EXCIT=(
              _F( CHARGE = CH0),
              _F( CHARGE = CH1, FONC_MULT = F1),
              _F( CHARGE = CH2, FONC_MULT = F2)),
           COMPORTEMENT=_F( TOUT = 'OUI', RELATION = 'ELAS'),
           SCHEMA_TEMPS=_F(SCHEMA='NEWMARK',FORMULATION='DEPLACEMENT'),
                        )

TEST_RESU(RESU=_F(INST=1.0,
                  REFERENCE='ANALYTIQUE',
                  RESULTAT=U3,
                  NOM_CHAM='DEPL',
                  NOEUD='N1',
                  NOM_CMP='DY',
                  VALE_CALC=-36.999995067,
                  VALE_REFE=-37.0,
                  PRECISION=9.9999999999999995E-07,),
          )

# 4) VALIDATION DE EVOL_CHAR (DE TYPE PRESSION) AVEC DYNA_VIBRA :
# -----------------------------------------------------------------
ASSEMBLAGE(  MODELE=MO,  CHAM_MATER=CHMAT,
                     CHARGE=CH0,
                    NUME_DDL=CO("NU"),MATR_ASSE=(

                        _F( MATRICE = CO("MATRRIGI"),
                         OPTION = 'RIGI_MECA'),
                        _F( MATRICE = CO("MATRMASS"),
                         OPTION = 'MASS_MECA'))
                   )

U4=DYNA_VIBRA(TYPE_CALCUL='TRAN',BASE_CALCUL='PHYS',
           MODELE=MO,      CHAM_MATER=CHMAT,
           SCHEMA_TEMPS=_F(SCHEMA='NEWMARK',),
           INCREMENT=_F( LIST_INST = LINST),EXCIT=(
              _F( CHARGE = CH0),
              _F( CHARGE = CH1, FONC_MULT = F1),
              _F( CHARGE = CH2, FONC_MULT = F2)),
             MATR_MASS=MATRMASS,
             MATR_RIGI=MATRRIGI,
             )

TEST_RESU(RESU=_F(INST=1.0,
                  REFERENCE='ANALYTIQUE',
                  RESULTAT=U4,
                  NOM_CHAM='DEPL',
                  NOEUD='N1',
                  NOM_CMP='DY',
                  VALE_CALC=-36.999995067,
                  VALE_REFE=-37.0,
                  PRECISION=9.9999999999999995E-07,),
          )

# 5) VALIDATION DE EVOL_CHAR (DE TYPE PRESSION) AVEC CALC_VECT_ELEM :
# -----------------------------------------------------------------

F1bis=DEFI_FONCTION(NOM_PARA='INST', VALE=(0., 0., 1., 1.,))

CH_ALL=AFFE_CHAR_MECA(MODELE=MO,
                      DDL_IMPO=_F(  GROUP_MA = 'AB',   DY = 0.) ,
                      PRES_REP=(
                                _F(  GROUP_MA = 'CD',   PRES = 1.),
                                _F(  GROUP_MA = 'CD',   PRES = 3.),
                               ),
                      EVOL_CHAR=PRESLU,
                      )

U5=MECA_STATIQUE(MODELE=MO,
                 LIST_INST=LINST,
                 CHAM_MATER=CHMAT,
                 EXCIT=(_F( CHARGE = CH_ALL, FONC_MULT = F1bis),),)

TEST_RESU(RESU=_F(INST=1.0,
                  REFERENCE='ANALYTIQUE',
                  RESULTAT=U5,
                  NOM_CHAM='DEPL',
                  NOEUD='N1',
                  NOM_CMP='DY',
                  VALE_CALC=-7.0,
                  VALE_REFE=-7.0,
                  PRECISION=9.9999999999999995E-07,),
          )


rigiel    = CALC_MATR_ELEM(MODELE=MO, CHAM_MATER=CHMAT, OPTION='RIGI_MECA', CHARGE=CH_ALL)
vecel     = CALC_VECT_ELEM(CHARGE=CH_ALL, INST=1.0, CHAM_MATER=CHMAT, OPTION='CHAR_MECA')
numeddl   = NUME_DDL(MATR_RIGI = rigiel)
matass    = ASSE_MATRICE(MATR_ELEM=rigiel , NUME_DDL=numeddl)
vecas     = ASSE_VECTEUR(VECT_ELEM=vecel, NUME_DDL=numeddl)
k         = FACTORISER(MATR_ASSE=matass);
U6        = RESOUDRE( MATR = k, CHAM_NO= vecas )
TEST_RESU(CHAM_NO=_F(
                  REFERENCE='ANALYTIQUE',
                  CHAM_GD=U6,
                  NOEUD='N1',
                  NOM_CMP='DY',
                  VALE_CALC=-7.0,
                  VALE_REFE=-7.0,
                  PRECISION=9.9999999999999995E-07,),
          )

FIN()
#
