# MODIF  DATE 16/01/2002   AUTEUR DURAND C.DURAND 
# TITRE VALIDATION POST_RELEVE_T 2D EN DIFFERENTS REPERES 
#            CONFIGURATION MANAGEMENT OF EDF VERSION
# ======================================================================
# COPYRIGHT (C) 1991 - 2001  EDF R&D                  WWW.CODE-ASTER.ORG
# THIS PROGRAM IS FREE SOFTWARE; YOU CAN REDISTRIBUTE IT AND/OR MODIFY
# IT UNDER THE TERMS OF THE GNU GENERAL PUBLIC LICENSE AS PUBLISHED BY
# THE FREE SOFTWARE FOUNDATION; EITHER VERSION 2 OF THE LICENSE, OR   
# (AT YOUR OPTION) ANY LATER VERSION.                                 
#
# THIS PROGRAM IS DISTRIBUTED IN THE HOPE THAT IT WILL BE USEFUL, BUT 
# WITHOUT ANY WARRANTY; WITHOUT EVEN THE IMPLIED WARRANTY OF          
# MERCHANTABILITY OR FITNESS FOR A PARTICULAR PURPOSE. SEE THE GNU    
# GENERAL PUBLIC LICENSE FOR MORE DETAILS.                            
#
# YOU SHOULD HAVE RECEIVED A COPY OF THE GNU GENERAL PUBLIC LICENSE   
# ALONG WITH THIS PROGRAM; IF NOT, WRITE TO EDF R&D CODE_ASTER,       
#    1 AVENUE DU GENERAL DE GAULLE, 92141 CLAMART CEDEX, FRANCE.      
# ======================================================================
#                  INDICE _G     REPERE: 'GLOBAL' 
#                  INDICE _L     REPERE: 'LOCAL' 
#                  INDICE _U     REPERE: 'UTILISATEUR'
#                  INDICE _C     REPERE: 'CYLINDRIQUE' 
#                  INDICE _P     REPERE: 'POLAIRE'
#
#       VALIDATION POST_RELEVE_T 2D, OPERANDE TRAC_DIR 
#                                    OPERANDE TRAC_NOR 
#
#       POST-TRAITEMENT D'UN TENSEUR
#                       D'UN VECTEUR
#

DEBUT( CODE=_F(  NOM = 'ZZZZ136B',NIV_PUB_WEB='INTERNET') )

MA=LIRE_MAILLAGE(  )

CHEM1=INTE_MAIL_2D(    MAILLAGE=MA,
                           DEFI_SEGMENT=_F(  GROUP_NO_ORIG = 'P1',
                                          GROUP_NO_EXTR = 'P2'),
                                INFO=2
                       )

CHEM2=INTE_MAIL_2D(    MAILLAGE=MA,
                            DEFI_CHEMIN=_F(  GROUP_MA = 'P2P3'),
                                INFO=2
                       )

CHEM3=INTE_MAIL_2D(    MAILLAGE=MA,
                           DEFI_SEGMENT=_F(  GROUP_NO_ORIG = 'P4',
                                          GROUP_NO_EXTR = 'P3'),
                                INFO=2
                       )

MA=DEFI_GROUP( reuse=MA,   MAILLAGE=MA,CREA_GROUP_NO=(
                       _F(  NOM = 'LIST1',
                                       OPTION = 'NOEUD_ORDO',
                                       GROUP_MA = 'P1P2',
                                       GROUP_NO_ORIG = 'P1',
                                       GROUP_NO_EXTR = 'P2'),
                       _F(  NOM = 'LIST2',
                                       OPTION = 'NOEUD_ORDO',
                                       GROUP_MA = 'P2P3',
                                       GROUP_NO_ORIG = 'P2',
                                       GROUP_NO_EXTR = 'P3'),
                       _F(  NOM = 'LIST3',
                                       OPTION = 'NOEUD_ORDO',
                                       GROUP_MA = 'P3P4',
                                       GROUP_NO_ORIG = 'P4',
                                       GROUP_NO_EXTR = 'P3'))
                   )

MO=AFFE_MODELE(    MAILLAGE=MA,
                           AFFE=_F(  TOUT = 'OUI',
                                  PHENOMENE = 'MECANIQUE',
                                  MODELISATION = 'D_PLAN')
                   )

MAT=DEFI_MATERIAU(     ELAS=_F(  E = 1.E+07,
                                   NU = 0.3)
                       )

CH_MAT=AFFE_MATERIAU(    MAILLAGE=MA,
                                 AFFE=_F(  TOUT = 'OUI',
                                        MATER = MAT) 
                         )

CHARGE=AFFE_CHAR_MECA(    MODELE=MO,
                              FACE_IMPO=_F(  GROUP_MA = 'P3P4',
                                          DNOR = 0.),
                               DDL_IMPO=_F(  GROUP_MA = 'P1P2',
                                          DY = 0.),
                               PRES_REP=_F(  GROUP_MA = 'P4P1', 
                                          PRES = 1.)
                          )

RESU=MECA_STATIQUE(        MODELE=MO,
                           CHAM_MATER=CH_MAT,
                                EXCIT=_F(  CHARGE = CHARGE), 
                               OPTION='SIGM_ELNO_DEPL' 
                          )

#======================================================================
#
#                     OPERANDE  REPERE
#
#======================================================================
#
# ==> TENSEUR


S1_G=POST_RELEVE_T(  ACTION=_F(  CHEMIN = CHEM1, 
                                    INTITULE = 'GLOBAL',
                                    RESULTAT = RESU,
                                    TOUT_CMP = 'OUI',
                                    NOM_CHAM = 'SIGM_ELNO_DEPL',
                                    OPERATION = 'EXTRACTION',
                                    REPERE = 'GLOBAL'), 
         TITRE='S1_G: CHEMIN P1 P2, REPERE GLOBAL'
                         )

IMPR_TABLE(   TABLE=S1_G, 
                NOM_PARA=( 'ABSC_CURV', 'SIXX', 'SIYY', 'SIZZ', 'SIXY', )
             )

S1L_G=POST_RELEVE_T(  ACTION=_F(  GROUP_NO = 'LIST1', 
                                    INTITULE = 'GLOBAL',
                                    RESULTAT = RESU,
                                    TOUT_CMP = 'OUI',
                                    NOM_CHAM = 'SIGM_ELNO_DEPL',
                                    OPERATION = 'EXTRACTION',
                                    REPERE = 'GLOBAL'), 
         TITRE='S1L_G: LISTE DE NOEUDS P1 P2, REPERE GLOBAL'
                         )

IMPR_TABLE(   TABLE=S1L_G, 
                NOM_PARA=( 'ABSC_CURV', 'SIXX', 'SIYY', 'SIZZ', 'SIXY', )
             )

S1_L=POST_RELEVE_T(  ACTION=_F(  CHEMIN = CHEM1, 
                                    INTITULE = 'LOCAL',
                                    RESULTAT = RESU,
                                    TOUT_CMP = 'OUI',
                                    NOM_CHAM = 'SIGM_ELNO_DEPL',
                                    OPERATION = 'EXTRACTION',
                                    REPERE = 'LOCAL'), 
         TITRE='S1_L: CHEMIN P1 P2, REPERE LOCAL'
                         )

IMPR_TABLE(   TABLE=S1_L,
                NOM_PARA=( 'ABSC_CURV', 'SIXX', 'SIYY', 'SIZZ', 'SIXY', )
             )

S1L_L=POST_RELEVE_T(  ACTION=_F(  GROUP_NO = 'LIST1', 
                                    INTITULE = 'LOCAL',
                                    RESULTAT = RESU,
                                    TOUT_CMP = 'OUI',
                                    NOM_CHAM = 'SIGM_ELNO_DEPL',
                                    OPERATION = 'EXTRACTION',
                                    REPERE = 'LOCAL'), 
           TITRE='S1L_L: LISTE DE NOEUDS P1 P2, REPERE LOCAL'
                         )

IMPR_TABLE(   TABLE=S1L_L,
                NOM_PARA=( 'ABSC_CURV', 'SIXX', 'SIYY', 'SIZZ', 'SIXY', )
             )

S1_U=POST_RELEVE_T(  ACTION=_F(  CHEMIN = CHEM1, 
                                    INTITULE = 'UTILISAT',
                                    RESULTAT = RESU,
                                    TOUT_CMP = 'OUI',
                                    NOM_CHAM = 'SIGM_ELNO_DEPL',
                                    OPERATION = 'EXTRACTION',
                                    REPERE = 'UTILISATEUR',
                                    ANGL_NAUT = ( 0., 0., 0., )), 
         TITRE=( 'S1_U: CHEMIN P1 P2, REPERE UTILISATEUR, ',
                 'ANGL_NAUT: ( 0. 0. 0. )', )
                         )

IMPR_TABLE(   TABLE=S1_U,
                NOM_PARA=( 'ABSC_CURV', 'SIXX', 'SIYY', 'SIZZ', 'SIXY', )
             )

S1L_U=POST_RELEVE_T(  ACTION=_F(  GROUP_NO = 'LIST1', 
                                    INTITULE = 'UTILISAT',
                                    RESULTAT = RESU,
                                    TOUT_CMP = 'OUI',
                                    NOM_CHAM = 'SIGM_ELNO_DEPL',
                                    OPERATION = 'EXTRACTION',
                                    REPERE = 'UTILISATEUR',
                                    ANGL_NAUT = ( 0., 0., 0., )), 
         TITRE=( 'S1L_U: LISTE DE NOEUDS P1 P2, REPERE UTILISATEUR, ',
                 'ANGL_NAUT: ( 0. 0. 0. )', )
                         )

IMPR_TABLE(   TABLE=S1L_U,
                NOM_PARA=( 'ABSC_CURV', 'SIXX', 'SIYY', 'SIZZ', 'SIXY', )
             )

S2_G=POST_RELEVE_T(  ACTION=_F(  CHEMIN = CHEM2,
                                    INTITULE = 'GLOBAL',
                                    RESULTAT = RESU,
                                    TOUT_CMP = 'OUI',
                                    NOM_CHAM = 'SIGM_ELNO_DEPL',
                                    OPERATION = 'EXTRACTION',
                                    REPERE = 'GLOBAL'), 
            TITRE='S2_G: CHEMIN P2 P3, REPERE GLOBAL'
                         )

IMPR_TABLE(   TABLE=S2_G, 
                NOM_PARA=( 'ABSC_CURV', 'SIXX', 'SIYY', 'SIZZ', 'SIXY', )
             )

S2L_G=POST_RELEVE_T(  ACTION=_F(  GROUP_NO = 'LIST2',
                                    INTITULE = 'GLOBAL',
                                    RESULTAT = RESU,
                                    TOUT_CMP = 'OUI',
                                    NOM_CHAM = 'SIGM_ELNO_DEPL',
                                    OPERATION = 'EXTRACTION',
                                    REPERE = 'GLOBAL'), 
            TITRE='S2L_G: LISTE DE NOEUDS P2 P3, REPERE GLOBAL'
                         )

IMPR_TABLE(   TABLE=S2L_G, 
                NOM_PARA=( 'ABSC_CURV', 'SIXX', 'SIYY', 'SIZZ', 'SIXY', )
             )

S2_L=POST_RELEVE_T(  ACTION=_F(  CHEMIN = CHEM2,
                                    INTITULE = 'LOCAL',
                                    RESULTAT = RESU,
                                    TOUT_CMP = 'OUI',
                                    NOM_CHAM = 'SIGM_ELNO_DEPL',
                                    OPERATION = 'EXTRACTION',
                                    REPERE = 'LOCAL'), 
            TITRE='S2_L: CHEMIN P2 P3, REPERE LOCAL'
                         )

IMPR_TABLE(   TABLE=S2_L,
                NOM_PARA=( 'ABSC_CURV', 'SIXX', 'SIYY', 'SIZZ', 'SIXY', )
             )

S2L_L=POST_RELEVE_T(  ACTION=_F(  GROUP_NO = 'LIST2',
                                    INTITULE = 'LOCAL',
                                    RESULTAT = RESU,
                                    TOUT_CMP = 'OUI',
                                    NOM_CHAM = 'SIGM_ELNO_DEPL',
                                    OPERATION = 'EXTRACTION',
                                    REPERE = 'LOCAL'), 
           TITRE='S2L_L: LISTE DE NOEUDS P2 P3 REPERE LOCAL'
                         )

IMPR_TABLE(   TABLE=S2L_L,
                NOM_PARA=( 'ABSC_CURV', 'SIXX', 'SIYY', 'SIZZ', 'SIXY', )
             )

S2_C=POST_RELEVE_T(  ACTION=_F(  CHEMIN = CHEM2,
                                    INTITULE = 'CYLINDR',
                                    RESULTAT = RESU,
                                    TOUT_CMP = 'OUI',
                                    NOM_CHAM = 'SIGM_ELNO_DEPL',
                                    OPERATION = 'EXTRACTION',
                                    REPERE = 'CYLINDRIQUE',
                                    ORIGINE = ( 0., 0., 0., ),
                                    AXE_Z = ( 0., 0., 1., )), 
            TITRE=( 'S2_C: CHEMIN P2 P3, REPERE CYLINDRIQUE, ',
                     'ORIGINE: (0. 0. 0.), AXE_Z: (0. 0. 1.)', )
                         )

IMPR_TABLE(   TABLE=S2_C,
                NOM_PARA=( 'ABSC_CURV', 'SIXX', 'SIYY', 'SIZZ', 'SIXY', )
             )

S2L_C=POST_RELEVE_T(  ACTION=_F(  GROUP_NO = 'LIST2',
                                    INTITULE = 'CYLINDR',
                                    RESULTAT = RESU,
                                    TOUT_CMP = 'OUI',
                                    NOM_CHAM = 'SIGM_ELNO_DEPL',
                                    OPERATION = 'EXTRACTION',
                                    REPERE = 'CYLINDRIQUE',
                                    ORIGINE = ( 0., 0., 0., ),
                                    AXE_Z = ( 0., 0., 1., )), 
           TITRE=( 'S2L_C: LISTE DE NOEUDS P2 P3, REPERE CYLINDRIQUE, ',
                     'ORIGINE: (0. 0. 0.), AXE_Z: (0. 0. 1.)', )
                         )

IMPR_TABLE(   TABLE=S2L_C,
                NOM_PARA=( 'ABSC_CURV', 'SIXX', 'SIYY', 'SIZZ', 'SIXY', )
             )

S2_P=POST_RELEVE_T(  ACTION=_F(  CHEMIN = CHEM2,
                                    INTITULE = 'POLAIRE',
                                    RESULTAT = RESU,
                                    TOUT_CMP = 'OUI',
                                    NOM_CHAM = 'SIGM_ELNO_DEPL',
                                    OPERATION = 'EXTRACTION',
                                    REPERE = 'POLAIRE'), 
            TITRE='S2_P: CHEMIN P2 P3, REPERE POLAIRE'
                         )

IMPR_TABLE(   TABLE=S2_P,
                NOM_PARA=( 'ABSC_CURV', 'SIXX', 'SIYY', 'SIZZ', 'SIXY', )
             )

S2L_P=POST_RELEVE_T(  ACTION=_F(  GROUP_NO = 'LIST2',
                                    INTITULE = 'POLAIRE',
                                    RESULTAT = RESU,
                                    TOUT_CMP = 'OUI',
                                    NOM_CHAM = 'SIGM_ELNO_DEPL',
                                    OPERATION = 'EXTRACTION',
                                    REPERE = 'POLAIRE'), 
            TITRE='S2L_P: LISTE DE NOEUDS P2 P3, REPERE POLAIRE'
                         )

IMPR_TABLE(   TABLE=S2L_P,
                NOM_PARA=( 'ABSC_CURV', 'SIXX', 'SIYY', 'SIZZ', 'SIXY', )
             )

S3_G=POST_RELEVE_T(  ACTION=_F(  CHEMIN = CHEM3,
                                    INTITULE = 'GLOBAL',
                                    RESULTAT = RESU,
                                    TOUT_CMP = 'OUI',
                                    NOM_CHAM = 'SIGM_ELNO_DEPL',
                                    OPERATION = 'EXTRACTION',
                                    REPERE = 'GLOBAL'), 
         TITRE='S3_G: CHEMIN P4 P3, REPERE GLOBAL'
                         )

IMPR_TABLE(   TABLE=S3_G, 
                NOM_PARA=( 'ABSC_CURV', 'SIXX', 'SIYY', 'SIZZ', 'SIXY', )
             )

S3L_G=POST_RELEVE_T(  ACTION=_F(  GROUP_NO = 'LIST3',
                                    INTITULE = 'GLOBAL',
                                    RESULTAT = RESU,
                                    TOUT_CMP = 'OUI',
                                    NOM_CHAM = 'SIGM_ELNO_DEPL',
                                    OPERATION = 'EXTRACTION',
                                    REPERE = 'GLOBAL'), 
         TITRE='S3L_G: LISTE DE NOEUDS P4 P3, REPERE GLOBAL'
                         )

IMPR_TABLE(   TABLE=S3L_G, 
                NOM_PARA=( 'ABSC_CURV', 'SIXX', 'SIYY', 'SIZZ', 'SIXY', )
             )

S3_L=POST_RELEVE_T(  ACTION=_F(  CHEMIN = CHEM3,
                                    INTITULE = 'LOCAL',
                                    RESULTAT = RESU,
                                    TOUT_CMP = 'OUI',
                                    NOM_CHAM = 'SIGM_ELNO_DEPL',
                                    OPERATION = 'EXTRACTION',
                                    REPERE = 'LOCAL'), 
         TITRE='S3_L: CHEMIN P4 P3, REPERE LOCAL'
                         )

IMPR_TABLE(   TABLE=S3_L,
                NOM_PARA=( 'ABSC_CURV', 'SIXX', 'SIYY', 'SIZZ', 'SIXY', )
             )

S3L_L=POST_RELEVE_T(  ACTION=_F(  GROUP_NO = 'LIST3',
                                    INTITULE = 'LOCAL',
                                    RESULTAT = RESU,
                                    TOUT_CMP = 'OUI',
                                    NOM_CHAM = 'SIGM_ELNO_DEPL',
                                    OPERATION = 'EXTRACTION',
                                    REPERE = 'LOCAL'), 
         TITRE='S3L_L: LISTE DE NOEUDS P4 P3, REPERE LOCAL'
                         )

IMPR_TABLE(   TABLE=S3L_L,
                NOM_PARA=( 'ABSC_CURV', 'SIXX', 'SIYY', 'SIZZ', 'SIXY', )
             )

S3_U=POST_RELEVE_T(  ACTION=_F(  CHEMIN = CHEM3,
                                    INTITULE = 'UTILISAT',
                                    RESULTAT = RESU,
                                    TOUT_CMP = 'OUI',
                                    NOM_CHAM = 'SIGM_ELNO_DEPL',
                                    OPERATION = 'EXTRACTION',
                                    REPERE = 'UTILISATEUR',
                                    ANGL_NAUT = ( 45., 0., 0., )), 
         TITRE=( 'S3_U: CHEMIN P4 P3, REPERE UTILISATEUR, ',
                 'ANGL_NAUT : ( 45. 0. 0. )', )
                         )

IMPR_TABLE(   TABLE=S3_U,
                NOM_PARA=( 'ABSC_CURV', 'SIXX', 'SIYY', 'SIZZ', 'SIXY', )
             )

S3L_U=POST_RELEVE_T(  ACTION=_F(  GROUP_NO = 'LIST3',
                                    INTITULE = 'UTILISAT',
                                    RESULTAT = RESU,
                                    TOUT_CMP = 'OUI',
                                    NOM_CHAM = 'SIGM_ELNO_DEPL',
                                    OPERATION = 'EXTRACTION',
                                    REPERE = 'UTILISATEUR',
                                    ANGL_NAUT = ( 45., 0., 0., )), 
          TITRE=( 'S3L_U: LISTE DE NOEUDS P4 P3, REPERE UTILISATEUR, ',
                 'ANGL_NAUT : ( 45. 0. 0. )', )
                         )

IMPR_TABLE(   TABLE=S3L_U,
                NOM_PARA=( 'ABSC_CURV', 'SIXX', 'SIYY', 'SIZZ', 'SIXY', )
             )

#
# ==> VECTEUR


D1_G=POST_RELEVE_T(  ACTION=_F(  CHEMIN = CHEM1, 
                                    INTITULE = 'GLOBAL',
                                    RESULTAT = RESU,
                                    TOUT_CMP = 'OUI',
                                    NOM_CHAM = 'DEPL',
                                    OPERATION = 'EXTRACTION',
                                    REPERE = 'GLOBAL'), 
         TITRE='D1_G: CHEMIN P1 P2, REPERE GLOBAL'
                         )

IMPR_TABLE(   TABLE=D1_G, 
                NOM_PARA=( 'ABSC_CURV', 'DX', 'DY', )
             )

D1L_G=POST_RELEVE_T(  ACTION=_F(  GROUP_NO = 'LIST1', 
                                    INTITULE = 'GLOBAL',
                                    RESULTAT = RESU,
                                    TOUT_CMP = 'OUI',
                                    NOM_CHAM = 'DEPL',
                                    OPERATION = 'EXTRACTION',
                                    REPERE = 'GLOBAL'), 
          TITRE='D1L_G: LISTE DE NOEUDS P1 P2, REPERE GLOBAL'
                         )

IMPR_TABLE(   TABLE=D1L_G, 
                NOM_PARA=( 'ABSC_CURV', 'DX', 'DY', )
             )

D1_L=POST_RELEVE_T(  ACTION=_F(  CHEMIN = CHEM1, 
                                    INTITULE = 'LOCAL',
                                    RESULTAT = RESU,
                                    TOUT_CMP = 'OUI',
                                    NOM_CHAM = 'DEPL',
                                    OPERATION = 'EXTRACTION',
                                    REPERE = 'LOCAL'), 
         TITRE='D1_L: CHEMIN P1 P2, REPERE LOCAL'
                         )

IMPR_TABLE(   TABLE=D1_L,
                NOM_PARA=( 'ABSC_CURV', 'DX', 'DY', )
             )

D1L_L=POST_RELEVE_T(  ACTION=_F(  GROUP_NO = 'LIST1', 
                                    INTITULE = 'LOCAL',
                                    RESULTAT = RESU,
                                    TOUT_CMP = 'OUI',
                                    NOM_CHAM = 'DEPL',
                                    OPERATION = 'EXTRACTION',
                                    REPERE = 'LOCAL'), 
         TITRE='D1L_L: LISTE DE NOEUDS P1 P2, REPERE LOCAL'
                         )

IMPR_TABLE(   TABLE=D1L_L,
                NOM_PARA=( 'ABSC_CURV', 'DX', 'DY', )
             )

D1_U=POST_RELEVE_T(  ACTION=_F(  CHEMIN = CHEM1, 
                                    INTITULE = 'UTILISAT',
                                    RESULTAT = RESU,
                                    TOUT_CMP = 'OUI',
                                    NOM_CHAM = 'DEPL',
                                    OPERATION = 'EXTRACTION',
                                    REPERE = 'UTILISATEUR',
                                    ANGL_NAUT = ( 0., 0., 0., )), 
         TITRE=( 'D1_U: CHEMIN P1 P2, REPERE UTILISATEUR, ',
                 'ANGL_NAUT : ( 0. 0. 0. )', )
                         )

IMPR_TABLE(   TABLE=D1_U,
                NOM_PARA=( 'ABSC_CURV', 'DX', 'DY', )
             )

D1L_U=POST_RELEVE_T(  ACTION=_F(  GROUP_NO = 'LIST1', 
                                    INTITULE = 'UTILISAT',
                                    RESULTAT = RESU,
                                    TOUT_CMP = 'OUI',
                                    NOM_CHAM = 'DEPL',
                                    OPERATION = 'EXTRACTION',
                                    REPERE = 'UTILISATEUR',
                                    ANGL_NAUT = ( 0., 0., 0., )), 
         TITRE=( 'D1L_U: LISTE DE NOEUDS P1 P2, REPERE UTILISATEUR, ',
                 'ANGL_NAUT : ( 0. 0. 0. )', )
                         )

IMPR_TABLE(   TABLE=D1L_U,
                NOM_PARA=( 'ABSC_CURV', 'DX', 'DY', )
             )

D2_G=POST_RELEVE_T(  ACTION=_F(  CHEMIN = CHEM2,
                                    INTITULE = 'GLOBAL',
                                    RESULTAT = RESU,
                                    TOUT_CMP = 'OUI',
                                    NOM_CHAM = 'DEPL',
                                    OPERATION = 'EXTRACTION',
                                    REPERE = 'GLOBAL'), 
         TITRE='D2_G: CHEMIN P2 P3, REPERE GLOBAL'
                         )

IMPR_TABLE(   TABLE=D2_G, 
                NOM_PARA=( 'ABSC_CURV', 'DX', 'DY', )
             )

D2L_G=POST_RELEVE_T(  ACTION=_F(  GROUP_NO = 'LIST2',
                                    INTITULE = 'GLOBAL',
                                    RESULTAT = RESU,
                                    TOUT_CMP = 'OUI',
                                    NOM_CHAM = 'DEPL',
                                    OPERATION = 'EXTRACTION',
                                    REPERE = 'GLOBAL'), 
         TITRE='D2L_G: LISTE DE NOEUDS P2 P3, REPERE GLOBAL'
                         )

IMPR_TABLE(   TABLE=D2L_G, 
                NOM_PARA=( 'ABSC_CURV', 'DX', 'DY', )
             )

D2_L=POST_RELEVE_T(  ACTION=_F(  CHEMIN = CHEM2,
                                    INTITULE = 'LOCAL',
                                    RESULTAT = RESU,
                                    TOUT_CMP = 'OUI',
                                    NOM_CHAM = 'DEPL',
                                    OPERATION = 'EXTRACTION',
                                    REPERE = 'LOCAL'), 
         TITRE='D2_L: CHEMIN P2 P3, REPERE LOCAL'
                         )

IMPR_TABLE(   TABLE=D2_L,
                NOM_PARA=( 'ABSC_CURV', 'DX', 'DY', )
             )

D2L_L=POST_RELEVE_T(  ACTION=_F(  GROUP_NO = 'LIST2',
                                    INTITULE = 'LOCAL',
                                    RESULTAT = RESU,
                                    TOUT_CMP = 'OUI',
                                    NOM_CHAM = 'DEPL',
                                    OPERATION = 'EXTRACTION',
                                    REPERE = 'LOCAL'), 
         TITRE='D2L_L: LISTE DE NOEUDS P2 P3, REPERE LOCAL'
                         )

IMPR_TABLE(   TABLE=D2L_L,
                NOM_PARA=( 'ABSC_CURV', 'DX', 'DY', )
             )

D2_C=POST_RELEVE_T(  ACTION=_F(  CHEMIN = CHEM2,
                                    INTITULE = 'CYLINDR',
                                    RESULTAT = RESU,
                                    TOUT_CMP = 'OUI',
                                    NOM_CHAM = 'DEPL',
                                    OPERATION = 'EXTRACTION',
                                    REPERE = 'CYLINDRIQUE',
                                    ORIGINE = ( 0., 0., 0., ),
                                    AXE_Z = ( 0., 0., 1., )), 
         TITRE=( 'D2_C: CHEMIN P2 P3, REPERE CYLINDRIQUE, ',
                 'ORIGINE: (0. 0. 0.), AXE_Z: (0. 0. 1.)', )
                         )

IMPR_TABLE(   TABLE=D2_C,
                NOM_PARA=( 'ABSC_CURV', 'DX', 'DY', )
             )

D2L_C=POST_RELEVE_T(  ACTION=_F(  GROUP_NO = 'LIST2',
                                    INTITULE = 'CYLINDR',
                                    RESULTAT = RESU,
                                    TOUT_CMP = 'OUI',
                                    NOM_CHAM = 'DEPL',
                                    OPERATION = 'EXTRACTION',
                                    REPERE = 'CYLINDRIQUE',
                                    ORIGINE = ( 0., 0., 0., ),
                                    AXE_Z = ( 0., 0., 1., )), 
         TITRE=( 'D2L_C: LISTE DE NOEUDS P2 P3, REPERE CYLINDRIQUE, ',
                 'ORIGINE: (0. 0. 0.), AXE_Z: (0. 0. 1.)', )
                         )

IMPR_TABLE(   TABLE=D2L_C,
                NOM_PARA=( 'ABSC_CURV', 'DX', 'DY', )
             )

D2_P=POST_RELEVE_T(  ACTION=_F(  CHEMIN = CHEM2,
                                    INTITULE = 'POLAIRE',
                                    RESULTAT = RESU,
                                    TOUT_CMP = 'OUI',
                                    NOM_CHAM = 'DEPL',
                                    OPERATION = 'EXTRACTION',
                                    REPERE = 'POLAIRE'), 
         TITRE='D2_P: CHEMIN P2 P3, REPERE POLAIRE'
                         )

IMPR_TABLE(   TABLE=D2_P,
                NOM_PARA=( 'ABSC_CURV', 'DX', 'DY', )
             )

D2L_P=POST_RELEVE_T(  ACTION=_F(  GROUP_NO = 'LIST2',
                                    INTITULE = 'POLAIRE',
                                    RESULTAT = RESU,
                                    TOUT_CMP = 'OUI',
                                    NOM_CHAM = 'DEPL',
                                    OPERATION = 'EXTRACTION',
                                    REPERE = 'POLAIRE'), 
         TITRE='D2L_P: LISTE DE NOEUDS P2 P3, REPERE POLAIRE'
                         )

IMPR_TABLE(   TABLE=D2L_P,
                NOM_PARA=( 'ABSC_CURV', 'DX', 'DY', )
             )

D3_G=POST_RELEVE_T(  ACTION=_F(  CHEMIN = CHEM3,
                                    INTITULE = 'GLOBAL',
                                    RESULTAT = RESU,
                                    TOUT_CMP = 'OUI',
                                    NOM_CHAM = 'DEPL',
                                    OPERATION = 'EXTRACTION',
                                    REPERE = 'GLOBAL'), 
          TITRE='D3_G: CHEMIN P4 P3, REPERE GLOBAL'
                         )

IMPR_TABLE(   TABLE=D3_G, 
                NOM_PARA=( 'ABSC_CURV', 'DX', 'DY', )
             )

D3L_G=POST_RELEVE_T(  ACTION=_F(  GROUP_NO = 'LIST3',
                                    INTITULE = 'GLOBAL',
                                    RESULTAT = RESU,
                                    TOUT_CMP = 'OUI',
                                    NOM_CHAM = 'DEPL',
                                    OPERATION = 'EXTRACTION',
                                    REPERE = 'GLOBAL'), 
         TITRE='D3L_G: LISTE DE NOEUDS P4 P3, REPERE GLOBAL'
                         )

IMPR_TABLE(   TABLE=D3L_G, 
                NOM_PARA=( 'ABSC_CURV', 'DX', 'DY', )
             )

D3_L=POST_RELEVE_T(  ACTION=_F(  CHEMIN = CHEM3,
                                    INTITULE = 'LOCAL',
                                    RESULTAT = RESU,
                                    TOUT_CMP = 'OUI',
                                    NOM_CHAM = 'DEPL',
                                    OPERATION = 'EXTRACTION',
                                    REPERE = 'LOCAL'), 
         TITRE='D3_L: CHEMIN P4 P3, REPERE LOCAL'
                         )

IMPR_TABLE(   TABLE=D3_L,
                NOM_PARA=( 'ABSC_CURV', 'DX', 'DY', )
             )

D3L_L=POST_RELEVE_T(  ACTION=_F(  GROUP_NO = 'LIST3',
                                    INTITULE = 'LOCAL',
                                    RESULTAT = RESU,
                                    TOUT_CMP = 'OUI',
                                    NOM_CHAM = 'DEPL',
                                    OPERATION = 'EXTRACTION',
                                    REPERE = 'LOCAL'), 
         TITRE='D3L_L: LISTE DE NOEUDS P4 P3, REPERE LOCAL'
                         )

IMPR_TABLE(   TABLE=D3L_L,
                NOM_PARA=( 'ABSC_CURV', 'DX', 'DY', )
             )

D3_U=POST_RELEVE_T(  ACTION=_F(  CHEMIN = CHEM3,
                                    INTITULE = 'UTILISAT',
                                    RESULTAT = RESU,
                                    TOUT_CMP = 'OUI',
                                    NOM_CHAM = 'DEPL',
                                    OPERATION = 'EXTRACTION',
                                    REPERE = 'UTILISATEUR',
                                    ANGL_NAUT = ( 45., 0., 0., )), 
         TITRE=( 'D3_U: CHEMIN P4 P3, REPERE UTILISATEUR, ',
                 'ANGL_NAUT : ( 45. 0. 0. )', )
                         )

IMPR_TABLE(   TABLE=D3_U,
                NOM_PARA=( 'ABSC_CURV', 'DX', 'DY', )
             )

D3L_U=POST_RELEVE_T(  ACTION=_F(  GROUP_NO = 'LIST3',
                                    INTITULE = 'UTILISAT',
                                    RESULTAT = RESU,
                                    TOUT_CMP = 'OUI',
                                    NOM_CHAM = 'DEPL',
                                    OPERATION = 'EXTRACTION',
                                    REPERE = 'UTILISATEUR',
                                    ANGL_NAUT = ( 45., 0., 0., )),
          TITRE=( 'D3L_U: LISTE DE NOEUDS P4 P3, REPERE UTILISATEUR, ',
                  'ANGL_NAUT : ( 45. 0. 0. )', )
                         )

IMPR_TABLE(   TABLE=D3L_U,
                NOM_PARA=( 'ABSC_CURV', 'DX', 'DY', )
             )

#======================================================================
#
#                     OPERANDE  TRAC_NOR
#
#======================================================================
#
# ==> TENSEUR


S1_TN=POST_RELEVE_T(  ACTION=_F(  CHEMIN = CHEM1, 
                                    INTITULE = 'TRAC_NOR',
                                    RESULTAT = RESU,
               NOM_CMP = ( 'SIXX', 'SIYY', 'SIZZ', 'SIXY', 'SIXZ', 'SIYZ', ),
                                    NOM_CHAM = 'SIGM_ELNO_DEPL',
                                    OPERATION = 'EXTRACTION',
                                    TRAC_NOR = 'OUI'), 
             TITRE='S1_TN: CHEMIN P1 P2, TRAC_NOR '
                         )

IMPR_TABLE(   TABLE=S1_TN,
             NOM_PARA=( 'ABSC_CURV', 'TR_NOR_1', 'TR_NOR_2', 'TR_NOR_3', )
             )

S1L_TN=POST_RELEVE_T(  ACTION=_F(  GROUP_NO = 'LIST1', 
                                    INTITULE = 'TRAC_NOR',
                                    RESULTAT = RESU,
               NOM_CMP = ( 'SIXX', 'SIYY', 'SIZZ', 'SIXY', 'SIXZ', 'SIYZ', ),
                                    NOM_CHAM = 'SIGM_ELNO_DEPL',
                                    OPERATION = 'EXTRACTION',
                                    TRAC_NOR = 'OUI'), 
             TITRE='S1L_TN: LISTE DE NOEUDS P1 P2, TRAC_NOR '
                         )

IMPR_TABLE(   TABLE=S1L_TN,
             NOM_PARA=( 'ABSC_CURV', 'TR_NOR_1', 'TR_NOR_2', 'TR_NOR_3', )
             )

#
# ==> VECTEUR
#     VOIR TEST TPLL01A

#======================================================================
#
#                     OPERANDE  TRAC_DIR
#
#======================================================================
#
# ==> TENSEUR


S1_TDX=POST_RELEVE_T(  ACTION=_F(  CHEMIN = CHEM1, 
                                    INTITULE = 'TRAC_DIRX',
                                    RESULTAT = RESU,
               NOM_CMP = ( 'SIXX', 'SIYY', 'SIZZ', 'SIXY', 'SIXZ', 'SIYZ', ),
                                    NOM_CHAM = 'SIGM_ELNO_DEPL',
                                    OPERATION = 'EXTRACTION',
                                    TRAC_DIR = 'OUI',
                                    DIRECTION = ( 1., 0., 0., )), 
             TITRE=( 'S1_TDX: CHEMIN  P1 P2, TRAC_DIR, ',
                     'DIRECTION: (1. 0. 0.)', )
                         )

IMPR_TABLE(   TABLE=S1_TDX, 
              NOM_PARA=( 'ABSC_CURV', 'TR_DIR_1', 'TR_DIR_2', 'TR_DIR_3', )
             )

S1L_TDX=POST_RELEVE_T(  ACTION=_F(  GROUP_NO = 'LIST1', 
                                    INTITULE = 'TRAC_DIRX',
                                    RESULTAT = RESU,
               NOM_CMP = ( 'SIXX', 'SIYY', 'SIZZ', 'SIXY', 'SIXZ', 'SIYZ', ),
                                    NOM_CHAM = 'SIGM_ELNO_DEPL',
                                    OPERATION = 'EXTRACTION',
                                    TRAC_DIR = 'OUI',
                                    DIRECTION = ( 1., 0., 0., )), 
             TITRE=( 'S1L_TDX: LISTE DE NOEUDS P1 P2, TRAC_DIR, ',
                     'DIRECTION: (1. 0. 0.)', )
                         )

IMPR_TABLE(   TABLE=S1L_TDX, 
              NOM_PARA=( 'ABSC_CURV', 'TR_DIR_1', 'TR_DIR_2', 'TR_DIR_3', )
             )

S1_TDY=POST_RELEVE_T(  ACTION=_F(  CHEMIN = CHEM1, 
                                    INTITULE = 'TRAC_DIRY',
                                    RESULTAT = RESU,
               NOM_CMP = ( 'SIXX', 'SIYY', 'SIZZ', 'SIXY', 'SIXZ', 'SIYZ', ),
                                    NOM_CHAM = 'SIGM_ELNO_DEPL',
                                    OPERATION = 'EXTRACTION',
                                    TRAC_DIR = 'OUI',
                                    DIRECTION = ( 0., 1., 0., )), 
             TITRE=( 'S1_TDY: CHEMIN P1 P2, TRAC_DIR, ',
                     'DIRECTION: (0. 1. 0.)', )
                         )

IMPR_TABLE(   TABLE=S1_TDY, 
              NOM_PARA=( 'ABSC_CURV', 'TR_DIR_1', 'TR_DIR_2', 'TR_DIR_3', )
             )

S1L_TDY=POST_RELEVE_T(  ACTION=_F(  GROUP_NO = 'LIST1', 
                                    INTITULE = 'TRAC_DIRY',
                                    RESULTAT = RESU,
               NOM_CMP = ( 'SIXX', 'SIYY', 'SIZZ', 'SIXY', 'SIXZ', 'SIYZ', ),
                                    NOM_CHAM = 'SIGM_ELNO_DEPL',
                                    OPERATION = 'EXTRACTION',
                                    TRAC_DIR = 'OUI',
                                    DIRECTION = ( 0., 1., 0., )), 
             TITRE=( 'S1L_TDY: LISTE DE NOEUDS P1 P2, TRAC_DIR, ',
                     'DIRECTION: (0. 1. 0.)', )
                         )

IMPR_TABLE(   TABLE=S1L_TDY, 
              NOM_PARA=( 'ABSC_CURV', 'TR_DIR_1', 'TR_DIR_2', 'TR_DIR_3', )
             )

S1_TDXY=POST_RELEVE_T(  ACTION=_F(  CHEMIN = CHEM1, 
                                    INTITULE = 'TRAC_DIRXY',
                                    RESULTAT = RESU,
               NOM_CMP = ( 'SIXX', 'SIYY', 'SIZZ', 'SIXY', 'SIXZ', 'SIYZ', ),
                                    NOM_CHAM = 'SIGM_ELNO_DEPL',
                                    OPERATION = 'EXTRACTION',
                                    TRAC_DIR = 'OUI',
                                    DIRECTION = ( 1., 1., 0., )), 
             TITRE=( 'S1_TDXY: CHEMIN P1 P2, TRAC_DIR, ',
                     'DIRECTION: (1. 1. 0.)', )
                         )

IMPR_TABLE(   TABLE=S1_TDXY, 
              NOM_PARA=( 'ABSC_CURV', 'TR_DIR_1', 'TR_DIR_2', 'TR_DIR_3', )
             )

S1L_TDXY=POST_RELEVE_T(  ACTION=_F(  GROUP_NO = 'LIST1', 
                                    INTITULE = 'TRAC_DIRXY',
                                    RESULTAT = RESU,
               NOM_CMP = ( 'SIXX', 'SIYY', 'SIZZ', 'SIXY', 'SIXZ', 'SIYZ', ),
                                    NOM_CHAM = 'SIGM_ELNO_DEPL',
                                    OPERATION = 'EXTRACTION',
                                    TRAC_DIR = 'OUI',
                                    DIRECTION = ( 1., 1., 0., )), 
             TITRE=( 'S1L_TDXY: LISTE DE NOEUDS P1 P2, TRAC_DIR, ',
                     'DIRECTION: (1. 1. 0.)', )
                         )

IMPR_TABLE(   TABLE=S1L_TDXY, 
              NOM_PARA=( 'ABSC_CURV', 'TR_DIR_1', 'TR_DIR_2', 'TR_DIR_3', )
             )

#
# ==> VECTEUR


D1_TDX=POST_RELEVE_T(  ACTION=_F(  CHEMIN = CHEM1, 
                                    INTITULE = 'TRAC_DIRX',
                                    RESULTAT = RESU,
                                    NOM_CMP = ( 'DX', 'DY', ),
                                    NOM_CHAM = 'DEPL',
                                    OPERATION = 'EXTRACTION',
                                    TRAC_DIR = 'OUI',
                                    DIRECTION = ( 1., 0., 0., )), 
             TITRE=( 'D1_TDX: CHEMIN P1 P2, TRAC_DIR, ',
                     'DIRECTION: (1. 0. 0.)', )
                         )

IMPR_TABLE(   TABLE=D1_TDX,
                NOM_PARA=( 'ABSC_CURV', 'TRAC_DIR', )
             )

D1L_TDX=POST_RELEVE_T(  ACTION=_F(  GROUP_NO = 'LIST1', 
                                    INTITULE = 'TRAC_DIRX',
                                    RESULTAT = RESU,
                                    NOM_CMP = ( 'DX', 'DY', ),
                                    NOM_CHAM = 'DEPL',
                                    OPERATION = 'EXTRACTION',
                                    TRAC_DIR = 'OUI',
                                    DIRECTION = ( 1., 0., 0., )), 
             TITRE=( 'D1L_TDX: LISTE DE NOEUDS P1 P2, TRAC_DIR, ',
                     'DIRECTION: (1. 0. 0.)', )
                         )

IMPR_TABLE(   TABLE=D1L_TDX,
                NOM_PARA=( 'ABSC_CURV', 'TRAC_DIR', )
             )

FIN( )
#
