# MODIF  DATE 10/10/2012   AUTEUR COURTOIS M.COURTOIS 
# TITRE CALCUL THERMO HYDRATATION ET SECHAGE BETON EN 2 LEVEES (2D AXIS)
# zzzz221a.para = tps_job 200 mem_job 512Mo ncpus 1 liste_test R
#            CONFIGURATION MANAGEMENT OF EDF VERSION
# ======================================================================
# COPYRIGHT (C) 1991 - 2012  EDF R&D                  WWW.CODE-ASTER.ORG
# THIS PROGRAM IS FREE SOFTWARE; YOU CAN REDISTRIBUTE IT AND/OR MODIFY
# IT UNDER THE TERMS OF THE GNU GENERAL PUBLIC LICENSE AS PUBLISHED BY
# THE FREE SOFTWARE FOUNDATION; EITHER VERSION 2 OF THE LICENSE, OR
# (AT YOUR OPTION) ANY LATER VERSION.
#
# THIS PROGRAM IS DISTRIBUTED IN THE HOPE THAT IT WILL BE USEFUL, BUT
# WITHOUT ANY WARRANTY; WITHOUT EVEN THE IMPLIED WARRANTY OF
# MERCHANTABILITY OR FITNESS FOR A PARTICULAR PURPOSE. SEE THE GNU
# GENERAL PUBLIC LICENSE FOR MORE DETAILS.
#
# YOU SHOULD HAVE RECEIVED A COPY OF THE GNU GENERAL PUBLIC LICENSE
# ALONG WITH THIS PROGRAM; IF NOT, WRITE TO EDF R&D CODE_ASTER,
#    1 AVENUE DU GENERAL DE GAULLE, 92141 CLAMART CEDEX, FRANCE.
# ======================================================================

DEBUT(CODE=_F(NOM='ZZZZ221A',
              NIV_PUB_WEB='INTERNET',),
      DEBUG=_F(SDVERI='OUI',),);

#===========================================================
# CALCUL THERMO HYDRATATION ET SECHAGE BETON
# B. MASSON - SEPTEN-DS - AOUT 2006
#===========================================================
# UNITES J H M KG Pa N

MAIL=LIRE_MAILLAGE(FORMAT='MED',);

MAIL=DEFI_GROUP(reuse =MAIL,
                MAILLAGE=MAIL,
                CREA_GROUP_NO=_F(TOUT_GROUP_MA='OUI',),);

MOTHER_1=AFFE_MODELE(MAILLAGE=MAIL,
                     AFFE=_F(GROUP_MA=('LEVEE_1','L1_INT','L1_EXT','L1_SUP','INTER','L1_INF',),
                             PHENOMENE='THERMIQUE',
                             MODELISATION='AXIS',),);

MOTHER_2=AFFE_MODELE(MAILLAGE=MAIL,
                     AFFE=_F(TOUT='OUI',
                             PHENOMENE='THERMIQUE',
                             MODELISATION='AXIS',),);

MAIL=MODI_MAILLAGE(reuse =MAIL,
                   MAILLAGE=MAIL,
                   ORIE_PEAU_2D=_F(GROUP_MA=('L1_INT','L1_EXT','L1_INF','L1_SUP','L2_EXT','L2_INT','L2_SUP',),),);

#
# DEFINITION DE L'AFFINITE FONCTION DU DEGRE D'HYDRATATION [-]
Ar = 4700;

TZ0 = 273.15;


AA0=DEFI_FONCTION(NOM_PARA='HYDR',VALE=(0.0,6510.0,
                        0.008,6360.0,
                        0.016,2485.0,
                        0.019,2460.0,
                        0.022,2440.0,
                        0.0258,6050.0,
                        0.038,9520.0,
                        0.047,21800.0,
                        0.08,37600.0,
                        0.138,51600.0,
                        0.232,51400.0,
                        0.351,28200.0,
                        0.44,16100.0,
                        0.5,11700.0,
                        0.55,7530.0,
                        0.594,6320.0,
                        0.63,5570.0,
                        0.66,5160.0,
                        0.697,4790.0,
                        0.73,4240.0,
                        0.76,3370.0,
# ... 15 like lines cut
                        ),PROL_DROITE='CONSTANT',PROL_GAUCHE='EXCLU',);

AA = FORMULE(VALE='exp(-Ar/(TZ0+TEMP))*(AA0(HYDR))',
             NOM_PARA=('HYDR','TEMP',),);

LL=DEFI_LIST_REEL(VALE=(0.0,0.008,0.016,0.019,0.022,0.0258,0.038,0.047,0.08,0.138,0.232,0.351,0.44,0.5,0.55,0.594,0.63,0.66,0.697,
                         0.73,0.76,0.79,0.81,0.83,0.84,0.87,0.88,0.89,0.9,0.906,0.91,0.95,0.97,0.98,0.99,1.0,),);

LT=DEFI_LIST_REEL(DEBUT=0.0,
                  INTERVALLE=_F(JUSQU_A=200.0,
                                PAS=0.1,),);

AFF=CALC_FONC_INTERP(FONCTION=AA,
                     LIST_PARA=LL,
                     NOM_RESU='AFF',
                     NOM_PARA='HYDR',
                     PROL_DROITE='CONSTANT',
                     PROL_GAUCHE='EXCLU',
                     NOM_PARA_FONC='TEMP',
                     LIST_PARA_FONC=LT,
                     PROL_DROITE_FONC='LINEAIRE',
                     PROL_GAUCHE_FONC='LINEAIRE',);

#
# CONDUCTIVITE THERMIQUE [J/H/M2/K] ==> 2,4 [W/M2/K]

COND=DEFI_FONCTION(NOM_PARA='TEMP',VALE=(0.0,8640.0,
                         300.0,8640.0,
                         ),PROL_DROITE='LINEAIRE',PROL_GAUCHE='LINEAIRE',);

#
# ENTHALPIE [J/M3]

ENTH=DEFI_FONCTION(NOM_PARA='TEMP',VALE=(0.0,655000000.0,
                         20.0,703000000.0,
                         50.0,775000000.0,
                         70.0,823000000.0,
                         ),PROL_DROITE='LINEAIRE',PROL_GAUCHE='LINEAIRE',);

#
# CONSTANTE D'ARRHENIUS [K]
# CHALEUR HYDRATATION [J/M3] val max BHP 1e+09
# CONDUCTIVITE THERMIQUE LAMBDA DE THER_HYDR [W/M/K]
# RHO_CP CHALEUR VOLUMIQUE A PRESSION CSTE [J/M3/K]
# CONDUCTIVITE THERMIQUE LAMBDA DE THER [W/M2/K]
# A [M2/H]  B[-]

BETON=DEFI_MATERIAU(THER_HYDR=_F(LAMBDA=COND,
                                 BETA=ENTH,
                                 AFFINITE=AFF,
                                 CHALHYDR=149000000.0,
                                 ),
                    THER=_F(LAMBDA=8640.0,
                            RHO_CP=2400000.0,),
                    SECH_GRANGER=_F(A=1.368e-09,
                                    B=0.05,
                                    QSR_K=4700.0,
                                    TEMP_0_C=0.0,),);

AFMAT=AFFE_MATERIAU(MAILLAGE=MAIL,
                    AFFE=(_F(GROUP_MA='LEVEE_1',
                             MATER=BETON,),
                          _F(GROUP_MA='LEVEE_2',
                             MATER=BETON,),),);

#
# CHARGEMENT
# ----------
TEMPEXT = 25.0;

TEMPINI = 25.0;


#
# COEFF D'ECHANGE [W/M2/K]
# [J/H/M2/K) ==> 4.5 [W/M2/K];
COEFH = 16200;


CL_HYDR1=AFFE_CHAR_THER(MODELE=MOTHER_1,
                        ECHANGE=_F(GROUP_MA=('L1_INT','L1_EXT','L1_SUP','INTER',),
                                   COEF_H=COEFH,
                                   TEMP_EXT=TEMPEXT,),);

CL_HYDR2=AFFE_CHAR_THER(MODELE=MOTHER_2,
                        ECHANGE=_F(GROUP_MA=('L1_INT','L2_INT','L1_EXT','L2_EXT','L1_SUP','L2_SUP',),
                                   COEF_H=COEFH,
                                   TEMP_EXT=TEMPEXT,),);

#
#
# =====================================================================
#                            LISTE D'INSTANTS
# =====================================================================
# TEMPS EN H

LINST=DEFI_LIST_REEL(DEBUT=0.0,
                     INTERVALLE=_F(JUSQU_A=200.0,
                                   PAS=10.0,),);

LARCH1=DEFI_LIST_REEL(DEBUT=0.0,
                      INTERVALLE=_F(JUSQU_A=100.0,
                                    PAS=20.,),);

LARCH2=DEFI_LIST_REEL(DEBUT=100.0,
                      INTERVALLE=_F(JUSQU_A=200.0,
                                    PAS=20.,),);

#
# =====================================================================
#   CALCUL TRANSITOIRE THERMO-HYDRATANT
# =====================================================================

T_INIT=CREA_CHAMP(TYPE_CHAM='NOEU_TEMP_R',
                  OPERATION='AFFE',
                  MAILLAGE=MAIL,
                  AFFE=_F(GROUP_NO='LEVEE_1',
                          NOM_CMP='TEMP',
                          VALE=TEMPINI,),);

T_INIT2=CREA_CHAMP(TYPE_CHAM='NOEU_TEMP_R',
                   OPERATION='AFFE',
                   MAILLAGE=MAIL,
                   AFFE=_F(GROUP_NO='LEVEE_2',
                           NOM_CMP='TEMP',
                           VALE=TEMPINI,),);

RES_HYD1=THER_NON_LINE(MODELE=MOTHER_1,
                       CHAM_MATER=AFMAT,
                       COMP_THER_NL=_F(RELATION='THER_HYDR',
                                       GROUP_MA='LEVEE_1',),
                       EXCIT=_F(CHARGE=CL_HYDR1,),
                       INCREMENT=_F(LIST_INST=LINST,
                                    INST_FIN=100,),
                       ETAT_INIT=_F(CHAM_NO=T_INIT,),
                       NEWTON=_F(REAC_ITER=1,),
                       CONVERGENCE=_F(RESI_GLOB_MAXI=0.01,
                                      ITER_GLOB_MAXI=100,),
                       PARM_THETA=0.57,
                       ARCHIVAGE=_F(LIST_INST=LARCH1,),);

TEMP_1=CREA_CHAMP(TYPE_CHAM='NOEU_TEMP_R',
                  OPERATION='EXTR',
                  RESULTAT=RES_HYD1,
                  NOM_CHAM='TEMP',
                  INST=100.0,);

T100=CREA_CHAMP(TYPE_CHAM='NOEU_TEMP_R',
                OPERATION='ASSE',
                MAILLAGE=MAIL,
                ASSE=(
                _F(GROUP_MA='LEVEE_2',
                   CHAM_GD=T_INIT2,),
                _F(GROUP_MA='LEVEE_1',
                   CHAM_GD=TEMP_1,),),);

RES_HYD1=CALC_CHAMP(reuse =RES_HYD1,
                    RESULTAT=RES_HYD1,
                    INST=100.0,
                    THERMIQUE='HYDR_NOEU',);

HY100_L1=CREA_CHAMP(TYPE_CHAM='ELNO_HYDR_R',
                    OPERATION='EXTR',
                    RESULTAT=RES_HYD1,
                    NOM_CHAM='HYDR_ELNO',
                    INST=100.0,
                    INFO=1,);

HY100_L2=CREA_CHAMP(TYPE_CHAM='ELNO_HYDR_R',
                    OPTION='RESI_RIGI_MASS',
                    OPERATION='AFFE',
                    MODELE=MOTHER_2,
                    PROL_ZERO='OUI',
                    AFFE=_F(GROUP_MA='LEVEE_2',
                            NOM_CMP='HYDR',
                            VALE=0.0000777,),
                    INFO=1,);

HY100=CREA_CHAMP(TYPE_CHAM='ELNO_HYDR_R',
                 OPERATION='ASSE',
                 MODELE=MOTHER_2,
                 ASSE=(
                 _F(GROUP_MA='LEVEE_2',
                    CHAM_GD=HY100_L2,),
                 _F(GROUP_MA='LEVEE_1',
                    CHAM_GD=HY100_L1,),),
                 INFO=1,);

RESU_100=CREA_RESU(OPERATION='AFFE',
                   TYPE_RESU='EVOL_THER',
                   NOM_CHAM='TEMP',
                   AFFE=_F(CHAM_GD=T100,
                           MODELE=MOTHER_2,
                           INST=100.0,),);

RESU_100=CREA_RESU(reuse =RESU_100,
                   OPERATION='AFFE',
                   TYPE_RESU='EVOL_THER',
                   NOM_CHAM='HYDR_ELNO',
                   AFFE=_F(CHAM_GD=HY100,
                           MODELE=MOTHER_2,
                           INST=100.0,),);

#SMP : NOUVEAU THER_NON_LINE EN PARTANT DE L'ETAT INITIAL CREE SUR L'ENSEMBLE DU MODELE

RES_HYD2=THER_NON_LINE(MODELE=MOTHER_2,
                       CHAM_MATER=AFMAT,
                       COMP_THER_NL=_F(RELATION='THER_HYDR',
                                       TOUT='OUI',),
                       EXCIT=_F(CHARGE=CL_HYDR2,),
                       INCREMENT=_F(LIST_INST=LINST,
                                    INST_INIT=100,
                                    INST_FIN=200,),
                       ETAT_INIT=_F(EVOL_THER=RESU_100,
                                    NUME_ORDRE=1,),
                       NEWTON=_F(REAC_ITER=1,),
                       CONVERGENCE=_F(RESI_GLOB_MAXI=0.01,
                                      ITER_GLOB_MAXI=100,),
                       ARCHIVAGE=_F(LIST_INST=LARCH2,),);

TT=POST_RELEVE_T(ACTION=_F(OPERATION='EXTRACTION',
                           INTITULE='TT',
                           RESULTAT=RES_HYD2,
                           NOM_CHAM='TEMP',
                           INST=200,
                           GROUP_NO='MAIL',
                           TOUT_CMP='OUI',),);

# NON-REGRESSION PAR RAPPORT A LA VERSION 10.1

TEST_TABLE(
           VALE_CALC=61.620516404220531,
           NOM_PARA='TEMP',
           TYPE_TEST='MAX',
           TABLE=TT,
           )

# RES_HYD2.001.000005.VALE=Temperature a NUMORDRE=5
# RES_HYD2.011.000005.CELV=Hydratation a NUMORDRE=5

TEST_RESU(RESU=(_F(NUME_ORDRE=5,
                   TYPE_TEST='SOMM',
                   RESULTAT=RES_HYD2,
                   NOM_CHAM='TEMP',
                   VALE_CALC=3.6593754668187998E4,
                   ),
                _F(NUME_ORDRE=5,
                   TYPE_TEST='SOMM',
                   RESULTAT=RES_HYD2,
                   NOM_CHAM='HYDR_ELNO',
                   VALE_CALC=1748.6230652766999,
                   ),
                ),
          )

FIN();
