# TITRE  VALIDATION DE STAT_NON_LINE / ETAT_INIT
# ======================================================================
# COPYRIGHT (C) 1991 - 2015  EDF R&D                  WWW.CODE-ASTER.ORG
# THIS PROGRAM IS FREE SOFTWARE; YOU CAN REDISTRIBUTE IT AND/OR MODIFY
# IT UNDER THE TERMS OF THE GNU GENERAL PUBLIC LICENSE AS PUBLISHED BY
# THE FREE SOFTWARE FOUNDATION; EITHER VERSION 2 OF THE LICENSE, OR
# (AT YOUR OPTION) ANY LATER VERSION.
#
# THIS PROGRAM IS DISTRIBUTED IN THE HOPE THAT IT WILL BE USEFUL, BUT
# WITHOUT ANY WARRANTY; WITHOUT EVEN THE IMPLIED WARRANTY OF
# MERCHANTABILITY OR FITNESS FOR A PARTICULAR PURPOSE. SEE THE GNU
# GENERAL PUBLIC LICENSE FOR MORE DETAILS.
#
# YOU SHOULD HAVE RECEIVED A COPY OF THE GNU GENERAL PUBLIC LICENSE
# ALONG WITH THIS PROGRAM; IF NOT, WRITE TO EDF R&D CODE_ASTER,
#    1 AVENUE DU GENERAL DE GAULLE, 92141 CLAMART CEDEX, FRANCE.
# ======================================================================
# ======================================================================
# DANS CE TEST, ON VALIDE LES POSSIBILITES DE "POURSUITE" DE STAT_NON_LINE
# (MOT CLE ETAT_INIT) EN PARTICULIER LE PROBLEME POSE PAR LE CHAMP INITIAL
# DES VARIABLES INTERNES (ROUTINE VRCOMP.F).
#
# ON TESTE LES 2 POSSIBILITES SUIVANTES :
#   * ETAT_INIT / EVOL_NOLI + INST
#   * ETAT_INIT / DEPL + SIGM + VARI
#
# ON TESTE :
#   * L'AJOUT DE NOUVEAUX ELEMENTS DANS LE MODELE
#   * LA SUPPRESSION D'ELEMENTS DANS LE MODELE
#   * LES POSSIBILITES DE CHANGER DE COMPORTEMENT SUIVANTES :
#        'VMIS_CINE_LINE'   ->   'VMIS_CINE_LINE'
#        'VMIS_CINE_LINE'   ->   'RIEN'             (SUPPRESSION D'ELEMENTS)
#        'VMIS_CINE_LINE'   ->   'VMIS_CINE_LINE'
#        'VMIS_ISOT_TRAC'   ->   'VMIS_ISOT_LINE'
#        'VMIS_ISOT_TRAC'   ->   'ELAS'
#        'VMIS_ISOT_LINE'   ->   'VMIS_ISOT_TRAC'
#        'ELAS'             ->   'VMIS_CINE_LINE'
#        'RIEN'             ->   'VMIS_CINE_LINE'  (AJOUT D'ELEMENTS)
#        'RIEN'             ->   'VMIS_CINE_LINE'  (AJOUT D'ELEMENTS)

#-----------------------------------------------------------------------------
DEBUT(CODE=_F(NIV_PUB_WEB='INTERNET'), DEBUG=_F(SDVERI='OUI'), IMPR_MACRO='NON',)


MAIL=LIRE_MAILLAGE(FORMAT='MED', )
DEFI_GROUP(reuse =MAIL, MAILLAGE=MAIL,
              CREA_GROUP_MA=(
                    _F(NOM='GM2', MAILLE=('M2',)),
                    _F(NOM='GM89', MAILLE=('M8','M9',)),
                    _F(NOM='GMS2',  DIFFE=('CARRE','GM2',)),
                    _F(NOM='GMS89', DIFFE=('CARRE','GM89',)),
             ))

SIGMF=DEFI_FONCTION( NOM_PARA='EPSI', VALE=(0.1,   200.,
                                            1.0,   500. ))
MATER=DEFI_MATERIAU(
          ELAS=     _F(E= 2000., NU = 0.3),
          PRAGER=   _F(C= 0.1),
          TRACTION= _F(SIGM= SIGMF),
          ECRO_LINE=_F(D_SIGM_EPSI=100., SY=100.,),
          )
CHMAT=AFFE_MATERIAU( MAILLAGE=MAIL, AFFE=_F( TOUT = 'OUI',MATER = MATER))

L_INST=DEFI_LIST_REEL( DEBUT=0.,INTERVALLE= _F( JUSQU_A = 100.,   NOMBRE = 5))


# 1. CALCUL SUR LE MODELE MOMEC1 (TOUTES LES MAILLES SAUF M8 ET M9) :
#--------------------------------------------------------------------

MOMEC1=AFFE_MODELE(  MAILLAGE=MAIL,
          AFFE=_F( GROUP_MA = 'GMS89',
                   MODELISATION = 'D_PLAN',     PHENOMENE = 'MECANIQUE'))


CHMEC1=AFFE_CHAR_MECA( MODELE=MOMEC1,DDL_IMPO=(
           _F( GROUP_MA = 'BORD1',  DX = 0.,  DY=0. ),
           _F( GROUP_MA = 'BORD3',  DX = 0.3, DY=0.6 )),)


U1=STAT_NON_LINE(MODELE=MOMEC1,  CHAM_MATER=CHMAT,
                 EXCIT=_F( CHARGE = CHMEC1),
                 COMPORTEMENT=(
                       _F( RELATION = 'VMIS_CINE_LINE', MAILLE=('M1','M2','M3')),
                       _F( RELATION = 'VMIS_ISOT_TRAC', MAILLE=('M4','M5')),
                       _F( RELATION = 'VMIS_ISOT_LINE', MAILLE=('M6')),
                       _F( RELATION = 'ELAS',           MAILLE=('M7')),
                       ),
                 INCREMENT=_F( LIST_INST = L_INST),
                 CONVERGENCE=_F( ITER_GLOB_MAXI=50),
                 NEWTON=_F(REAC_ITER=2,),
                 )


# 2. CALCUL SUR LE MODELE MOMEC2 (TOUTES LES MAILLES SAUF M2) :
#--------------------------------------------------------------------

MOMEC2=AFFE_MODELE(  MAILLAGE=MAIL,
          AFFE=_F( GROUP_MA = 'GMS2',
                   MODELISATION = 'D_PLAN',     PHENOMENE = 'MECANIQUE'))


CHMEC2=AFFE_CHAR_MECA( MODELE=MOMEC2,DDL_IMPO=(
           _F( GROUP_MA = 'BORD1',  DX = 0.,  DY=0. ),
           _F( GROUP_MA = 'BORD3',  DX = 0.3, DY=0.6 )),)

#  CHANGEMENTS DE COMPORTEMENT:
#       M1 :   'VMIS_CINE_LINE'   ->   'VMIS_CINE_LINE'
#       M2 :   'VMIS_CINE_LINE'   ->   'RIEN'
#       M3 :   'VMIS_CINE_LINE'   ->   'VMIS_CINE_LINE'
#       M4 :   'VMIS_ISOT_TRAC'   ->   'VMIS_ISOT_LINE'
#       M5 :   'VMIS_ISOT_TRAC'   ->   'ELAS'
#       M6 :   'VMIS_ISOT_LINE'   ->   'VMIS_ISOT_TRAC'
#       M7 :   'ELAS'             ->   'VMIS_CINE_LINE'
#       M8 :   'RIEN'             ->   'VMIS_CINE_LINE'
#       M9 :   'RIEN'             ->   'VMIS_CINE_LINE'

# 2.1 ETAT_INIT / EVOL_NOLI + INST :
#--------------------------------------------------------------------
U2_1=STAT_NON_LINE(MODELE=MOMEC2,  CHAM_MATER=CHMAT,
                 ETAT_INIT=_F( EVOL_NOLI = U1, INST=60.),
                 EXCIT=_F( CHARGE = CHMEC2),
                 COMPORTEMENT=(
                       _F( RELATION = 'VMIS_CINE_LINE', MAILLE=('M1','M3','M7','M8','M9')),
                       _F( RELATION = 'VMIS_ISOT_TRAC', MAILLE=('M6')),
                       _F( RELATION = 'VMIS_ISOT_LINE', MAILLE=('M4')),
                       _F( RELATION = 'ELAS',           MAILLE=('M5')),
                       ),
                 INCREMENT=_F( LIST_INST = L_INST,INST_INIT=60. ),
                 CONVERGENCE=_F( ITER_GLOB_MAXI=50),
                 NEWTON=_F(REAC_ITER=2,),
               )

# 2.2 ETAT_INIT / EVOL_NOLI + DEPL, SIGM, VARI :
#--------------------------------------------------------------------

D1=CREA_CHAMP(TYPE_CHAM='NOEU_DEPL_R', OPERATION='EXTR', RESULTAT=U1, NOM_CHAM='DEPL',      INST=60.)
S1=CREA_CHAMP(TYPE_CHAM='ELGA_SIEF_R', OPERATION='EXTR', RESULTAT=U1, NOM_CHAM='SIEF_ELGA', INST=60.)
V1=CREA_CHAMP(TYPE_CHAM='ELGA_VARI_R', OPERATION='EXTR', RESULTAT=U1, NOM_CHAM='VARI_ELGA', INST=60.)

U2_2=STAT_NON_LINE(MODELE=MOMEC2,  CHAM_MATER=CHMAT,
                 ETAT_INIT=_F( DEPL=D1, SIGM=S1, VARI=V1),
                 EXCIT=_F( CHARGE = CHMEC2),
                 COMPORTEMENT=(
                       _F( RELATION = 'VMIS_CINE_LINE', MAILLE=('M1','M3','M7','M8','M9')),
                       _F( RELATION = 'VMIS_ISOT_TRAC', MAILLE=('M6')),
                       _F( RELATION = 'VMIS_ISOT_LINE', MAILLE=('M4')),
                       _F( RELATION = 'ELAS',           MAILLE=('M5')),
                       ),
                 INCREMENT=_F( LIST_INST = L_INST,INST_INIT=60. ),
                 CONVERGENCE=_F( ITER_GLOB_MAXI=50),
                 NEWTON=_F(REAC_ITER=2,),
               )



# TEST_RESU (NON-REGRESSION) :
#------------------------------
TEST_RESU(OBJET=(_F(VALE_CALC=4.1698896080000001,
                    NOM='U1      .001.000005.VALE',
                    ),
                 _F(VALE_CALC=8.9899605359999999,
                    NOM='U2_1    .001.000002.VALE',
                    ),
                 _F(VALE_CALC=8.9899605359999999,
                    NOM='U2_2    .001.000002.VALE',
                    ),
                 ),
          )

#--------------------------------------------------------------------------------------------------------
# 3. Validation de DEFI_GROUP / CREA_GROUP_NO /OPTION='NOEUD_ORDO' sur une ligne fermee (boucle) :
#----------------------------------------------------------------------------------------------
#
# 3.1 : On valide que la commande produit le bon GROUP_NO, mais on ne peut pas verifier son orientation
#       car TEST_FICHIER fait la somme des numeros des noeuds sans tenir compte de l'ordre.
MAIL=DEFI_GROUP(reuse =MAIL, MAILLAGE=MAIL,
                CREA_GROUP_NO=_F(OPTION='NOEUD_ORDO',
                                 NOM='BORD', GROUP_MA='BORD',
                                 GROUP_NO_ORIG='A', GROUP_NO_EXTR='A', VECT_ORIE=(1.,0.)))


DEFI_FICHIER(UNITE=50, FICHIER='./REPE_OUT/zzzz258a.pos')
IMPR_RESU(RESU=_F(MAILLAGE=MAIL),UNITE=50)
DEFI_FICHIER(ACTION='LIBERER',UNITE=50)

TEST_FICHIER(FICHIER="./REPE_OUT/zzzz258a.pos",
             NB_VALE_I=181,
             VALE_CALC_I=2498,
             NB_VALE=33,
             VALE_CALC=27.000000000,
             VALE_CALC_K="dd686a4b7c7aa4b1913867c4e97c370b"
)

# 3.2 : Pour valider l'orientation du pourtour, on utilise MACR_LIGN_COUP :
CH1=CREA_CHAMP(TYPE_CHAM='NOEU_TEMP_R', OPERATION='AFFE', MAILLAGE=MAIL, INFO=2,
                AFFE=(
                    _F(TOUT='OUI',       NOM_CMP='TEMP', VALE=1.,),
                    _F(GROUP_MA='BORD4', NOM_CMP='TEMP', VALE=2.,),
                    ))
# dans le sens trigo, on doit retrouver 1. pour ABSC_CURV=1.
MAIL=DEFI_GROUP(reuse=MAIL, MAILLAGE=MAIL, DETR_GROUP_NO=_F(NOM='BORD'))
TB1=MACR_LIGN_COUPE( CHAM_GD= CH1,  MODELE=MOMEC2,
                     LIGN_COUPE = _F( TYPE='GROUP_MA',  MAILLAGE=MAIL, GROUP_MA='BORD',
                                      GROUP_NO_ORIG='A', GROUP_NO_EXTR='A', VECT_ORIE=(1.,0.)
                                    ))
TEST_TABLE(REFERENCE='ANALYTIQUE',
           VALE_CALC=1.000000000,
           VALE_REFE=1.0,
           NOM_PARA='TEMP',
           TABLE=TB1,
           FILTRE=_F(NOM_PARA='ABSC_CURV',
                     VALE=1.0,),
           )

# dans le sens anti-trigo, on doit retrouver 2. pour ABSC_CURV=1.
MAIL=DEFI_GROUP(reuse=MAIL, MAILLAGE=MAIL, DETR_GROUP_NO=_F(NOM='BORD'))
TB2=MACR_LIGN_COUPE( CHAM_GD= CH1,  MODELE=MOMEC2,
                     LIGN_COUPE = _F( TYPE='GROUP_MA',  MAILLAGE=MAIL, GROUP_MA='BORD',
                                      GROUP_NO_ORIG='A', GROUP_NO_EXTR='A', VECT_ORIE=(0.,1.)
                                    ))
TEST_TABLE(REFERENCE='ANALYTIQUE',
           VALE_CALC=2.000000000,
           VALE_REFE=2.0,
           NOM_PARA='TEMP',
           TABLE=TB2,
           FILTRE=_F(NOM_PARA='ABSC_CURV',
                     VALE=1.0,),
           )

FIN()
