# MODIF  DATE 02/04/2013   AUTEUR BOITEAU O.BOITEAU 
# TITRE VALIDATION DU PARALLELISME MULTI-NIVEAUX DE MACRO_MODE_MECA
#            CONFIGURATION MANAGEMENT OF EDF VERSION
# ======================================================================
# COPYRIGHT (C) 1991 - 2013  EDF R&D                  WWW.CODE-ASTER.ORG
# THIS PROGRAM IS FREE SOFTWARE; YOU CAN REDISTRIBUTE IT AND/OR MODIFY  
# IT UNDER THE TERMS OF THE GNU GENERAL PUBLIC LICENSE AS PUBLISHED BY  
# THE FREE SOFTWARE FOUNDATION; EITHER VERSION 2 OF THE LICENSE, OR     
# (AT YOUR OPTION) ANY LATER VERSION.                                                    
#                                                                       
# THIS PROGRAM IS DISTRIBUTED IN THE HOPE THAT IT WILL BE USEFUL, BUT   
# WITHOUT ANY WARRANTY; WITHOUT EVEN THE IMPLIED WARRANTY OF            
# MERCHANTABILITY OR FITNESS FOR A PARTICULAR PURPOSE. SEE THE GNU      
# GENERAL PUBLIC LICENSE FOR MORE DETAILS.                              
#                                                                       
# YOU SHOULD HAVE RECEIVED A COPY OF THE GNU GENERAL PUBLIC LICENSE     
# ALONG WITH THIS PROGRAM; IF NOT, WRITE TO EDF R&D CODE_ASTER,         
#    1 AVENUE DU GENERAL DE GAULLE, 92141 CLAMART CEDEX, FRANCE.        
# ======================================================================
# zzzz337a.para = tps_job 100 mem_job 512Mo nproc_mpi 4 nnoeud_mpi 1 ncpus 1 liste_test RI
################################################################################
# CAS TEST EST CALQUE SUR LA PREMIERE PARTIE DE FDLV112B.
# IL EST A LANCER SUR  PROCESSUS MPI.
# IL EST DEDIE A LA VALIDATION INFORMATIQUE ET FONCTIONELLE DES DIFFERENTS
# SCENARIOS DE PARALLELISME UTILISABLE AVEC MACRO_MODE_MECA ET INFO_MODE:
# - EN PARALLELISANT LA DISTRIBUTION EN FREQUENCE, LE SOLVEUR LINEAIRE OU LES 2.
# - EN JOUANT SUR LA REPARTITION DES PROCESSEURS SUR CES DIFFERENTS NIVEAUX.
# - EN JOUANT SUR LE CRITERE DE STURM DE POST-VERIFICATION (COM SUPPLEMENTAIRE).
# - EN JOUANT SUR LES DIFFERENTS ALGORITHMES MODAUX ET SOLVEURS LINEAIRES DISPO
#   NIBLES.
################################################################################
DEBUT(CODE=_F(NOM='ZZZZ337A', NIV_PUB_WEB='INTERNET',),DEBUG=_F(SDVERI='OUI') 
      ,IMPR_MACRO='NON');
#
mail0 = LIRE_MAILLAGE(FORMAT='MED', VERI_MAIL=_F(VERIF='OUI'));

mail=CREA_MAILLAGE(MAILLAGE=mail0,
                      CREA_POI1 =(
                                  _F(NOM_GROUP_MA = 'PBASE',
                                    NOEUD = 'N316'),
                                  _F(NOM_GROUP_MA = 'PFONDAT',
                                    GROUP_MA = 'SURFBAS2'),
                                 ),
                     );

mail=DEFI_GROUP(reuse =mail,
                MAILLAGE=mail,
                CREA_GROUP_NO=_F(NOM='ISOLSTR',
                                 GROUP_MA=('SURFBAS2'),
                                ),
               );

mail=MODI_MAILLAGE( reuse=mail,
                    MAILLAGE=mail,
                    ORIE_NORM_COQUE=(_F( VECT_NORM = (0., 0., 1.,),
                                         NOEUD = 'N963',
                                         GROUP_MA = 'IFLUSOL2'),
                                     _F( VECT_NORM = (1., 0., 0.,),
                                         NOEUD = 'N221',
                                         GROUP_MA = 'IFLUSTR2'),
                                     _F( VECT_NORM = (0., 0., -1.,),
                                         NOEUD = 'N316',
                                         GROUP_MA = 'SURFBAS2'),
                                     _F( VECT_NORM = (0., 0., 1.,),
                                         NOEUD = 'N1043',
                                         GROUP_MA = 'SLIBREM2'),
                                    ),
                   );
modele=AFFE_MODELE( MAILLAGE= mail,
                      AFFE=( _F(GROUP_MA=( 'STRVOU2' ),
                                PHENOMENE= 'MECANIQUE',
                                MODELISATION= '3D'),
                             _F(GROUP_MA = 'PBASE',
                                PHENOMENE = 'MECANIQUE',
                                MODELISATION = 'DIS_TR'),
                           ),
                      );
mat1= DEFI_MATERIAU( ELAS=_F( E= 3.6E+10,
                              RHO= 2400.,
                              NU= 0.2,
                            ),
                       ) ;

champmat = AFFE_MATERIAU( MAILLAGE= mail,
                            AFFE=_F( GROUP_MA= ('STRVOU2'),
                                   MATER= mat1 )
                           );

cara_ele=AFFE_CARA_ELEM(MODELE=modele,
                        DISCRET=(_F(GROUP_MA='PBASE',
                                    REPERE='GLOBAL',
                                    CARA='M_TR_D_N',
                                    VALE=(0.,0.,0.,0.,0.,0.,0.,0.,0.,0.,)),
                                 _F(GROUP_MA='PBASE',
                                    REPERE='GLOBAL',
                                    CARA='K_TR_D_N',
                                    VALE=(0.,0.,0.,0.,0.,0.))
                                 ),
                        );


cond_lim = AFFE_CHAR_MECA( MODELE= modele,
                           DDL_IMPO=_F(
                                          #GROUP_NO=('ISOLSTR',),
                                          NOEUD = 'N316',
                                          DX= 0.,
                                          DY= 0.,
                                          DZ= 0.,
                                          DRX= 0.,
                                          DRY= 0.,
                                          DRZ= 0.,
                                      ),
                           LIAISON_SOLIDE=_F(GROUP_NO=('ISOLSTR',),)
                          );


rigi_ele = CALC_MATR_ELEM( MODELE= modele ,
                           OPTION= 'RIGI_MECA',
                           CHAM_MATER= champmat,
                           CHARGE= cond_lim,
                           CARA_ELEM=cara_ele,
                         );
#
mass_ele = CALC_MATR_ELEM( MODELE= modele ,
                           OPTION= 'MASS_MECA',
                           CHAM_MATER= champmat,
                           CHARGE= cond_lim,
                           CARA_ELEM=cara_ele,
                         );

nume_ddl = NUME_DDL( MATR_RIGI= rigi_ele );

MATRIGI= ASSE_MATRICE( MATR_ELEM= rigi_ele, NUME_DDL= nume_ddl );
MATMASS= ASSE_MATRICE( MATR_ELEM= mass_ele, NUME_DDL= nume_ddl );


# DIFFERENTS SCENARIOS PARALLELES AVEC SOLVEUR LINEAIRE MUMPS
#------------------------------------------------------------

para_sturm='GLOBAL'
# PARALLELISME 4x1 (1 PROC POUR CHACUNE DES 4 BANDES x 1 PROC POUR MUMPS)
nbmd41=INFO_MODE(MATR_RIGI=MATRIGI,MATR_MASS=MATMASS,INFO=1,
                   FREQ=(0.1,10.,20.,30.,40.,),SOLVEUR=_F(METHODE='MUMPS'),
                   NIVEAU_PARALLELISME='COMPLET',)
IMPR_TABLE(TABLE=nbmd41,UNITE=6)
mode41=MACRO_MODE_MECA(MATR_RIGI=MATRIGI,MATR_MASS=MATMASS,INFO=1,
                       CALC_FREQ=_F(FREQ=(0.1, 10.,20.,30.,40.,),),
                       SOLVEUR=_F(METHODE='MUMPS',RENUM='QAMD',GESTION_MEMOIRE='IN_CORE',),
                       NIVEAU_PARALLELISME='COMPLET',
                       VERI_MODE=_F(STURM=para_sturm),
                       FILTRE_MODE=_F(SEUIL=0.0003,),
                       IMPRESSION=_F(),);

# PARALLELISME 1x4 (PARALLELISME UNIQUEMENT SUR MUMPS, 4 PROCS)
nbmd14=INFO_MODE(MATR_RIGI=MATRIGI,MATR_MASS=MATMASS,INFO=1,
                   FREQ=(0.1,10.,20.,30.,40.,),SOLVEUR=_F(METHODE='MUMPS'),
                   NIVEAU_PARALLELISME='PARTIEL',)
IMPR_TABLE(TABLE=nbmd14,UNITE=6)
mode14=MACRO_MODE_MECA(MATR_RIGI=MATRIGI,MATR_MASS=MATMASS,
                       CALC_FREQ=_F(FREQ=(0.1, 10.,20.,30.,40.,),),              
                       SOLVEUR=_F(METHODE='MUMPS',RENUM='QAMD',GESTION_MEMOIRE='IN_CORE'),
                       NIVEAU_PARALLELISME='PARTIEL',
                       VERI_MODE=_F(STURM=para_sturm),
                       FILTRE_MODE=_F(SEUIL=0.0003,),
                       IMPRESSION=_F(),);

para_sturm='LOCAL'
# PARALLELISME 2x2 (1 PROC POUR 2 BANDES x 2 PROCS POUR MUMPS)
nbmd22=INFO_MODE(MATR_RIGI=MATRIGI,MATR_MASS=MATMASS,INFO=1,
                   FREQ=(0.1,20.,40.,),SOLVEUR=_F(METHODE='MUMPS'),
                   NIVEAU_PARALLELISME='COMPLET',)
IMPR_TABLE(TABLE=nbmd22,UNITE=6)
mode22=MACRO_MODE_MECA(MATR_RIGI=MATRIGI,MATR_MASS=MATMASS,
                       CALC_FREQ=_F(FREQ=(0.1, 20.,40.,),),              
                       SOLVEUR=_F(METHODE='MUMPS',RENUM='QAMD',GESTION_MEMOIRE='IN_CORE'),
                       NIVEAU_PARALLELISME='COMPLET',
                       VERI_MODE=_F(STURM=para_sturm),
                       FILTRE_MODE=_F(SEUIL=0.0003,),
                       IMPRESSION=_F(),);
para_sturm='NON'
# PARALLELISME AVEC DESEQUILIBRAGE: 1x2 POUR LA PREMIERE SOUS-BANDE, 1x1 POUR LES AUTRES
nbmd211=INFO_MODE(MATR_RIGI=MATRIGI,MATR_MASS=MATMASS,INFO=1,
                   FREQ=(0.1,20.,30.,40.,),SOLVEUR=_F(METHODE='MUMPS'),
                   NIVEAU_PARALLELISME='COMPLET',)
IMPR_TABLE(TABLE=nbmd211,UNITE=6)
mode211=MACRO_MODE_MECA(MATR_RIGI=MATRIGI,MATR_MASS=MATMASS,
                       CALC_FREQ=_F(FREQ=(0.1, 20.,30.,40.,),),          
                       SOLVEUR=_F(METHODE='MUMPS',RENUM='QAMD',GESTION_MEMOIRE='IN_CORE'),
                       NIVEAU_PARALLELISME='COMPLET',
                       VERI_MODE=_F(STURM=para_sturm),
                       FILTRE_MODE=_F(SEUIL=0.0003,),
                       IMPRESSION=_F(),);

# FIN DE TEST INFO_MODE PARALLELE EN CHANGEANT DE SOLVEUR LINEAIRE
#-----------------------------------------------------------------
nbmdMF=INFO_MODE(MATR_RIGI=MATRIGI,MATR_MASS=MATMASS,INFO=1,
                   FREQ=(0.1,10.,20.,30.,40.,),SOLVEUR=_F(METHODE='MULT_FRONT'),),
IMPR_TABLE(TABLE=nbmdMF,UNITE=6)
nbmdLDLT=INFO_MODE(MATR_RIGI=MATRIGI,MATR_MASS=MATMASS,INFO=1,
                   FREQ=(0.1,10.,20.,30.,40.,),SOLVEUR=_F(METHODE='LDLT'),),
IMPR_TABLE(TABLE=nbmdLDLT,UNITE=6)

# DIFFERENTS SCENARIOS PARALLELES EN PANACHANT SOLVEUR MODAL ET LINEAIRE
#------------------------------------------------------------------------
para_sturm='GLOBAL'
# PARALLELISME 4x1 (SORENSEN + MULT_FRONT)
modeSM=MACRO_MODE_MECA(MATR_RIGI=MATRIGI,MATR_MASS=MATMASS,
                       CALC_FREQ=_F(FREQ=(0.1, 10.,20.,30.,40.,),),              
                       METHODE='SORENSEN',SOLVEUR=_F(METHODE='MULT_FRONT'),
                       NIVEAU_PARALLELISME='COMPLET',
                       VERI_MODE=_F(STURM=para_sturm),
                       FILTRE_MODE=_F(SEUIL=0.0003,),
                       IMPRESSION=_F(),);
para_sturm='LOCAL'
# PARALLELISME 4x1 (TRI_DIAG + MULT_FRONT)
modeLM=MACRO_MODE_MECA(MATR_RIGI=MATRIGI,MATR_MASS=MATMASS,
                       CALC_FREQ=_F(FREQ=(0.1, 10.,20.,30.,40.,),COEF_DIM_ESPACE=8),
                       METHODE='TRI_DIAG',SOLVEUR=_F(METHODE='MULT_FRONT'),              
                       NIVEAU_PARALLELISME='COMPLET',
                       VERI_MODE=_F(STURM=para_sturm),
                       FILTRE_MODE=_F(SEUIL=0.0003,),
                       IMPRESSION=_F(),);

para_sturm='NON'
# PARALLELISME 4x1 (JACOBI + MULT_FRONT)
modeJM=MACRO_MODE_MECA(MATR_RIGI=MATRIGI,MATR_MASS=MATMASS,
                       CALC_FREQ=_F(FREQ=(0.1, 10.,20.,30.,40.,),),
                       METHODE='JACOBI',SOLVEUR=_F(METHODE='MULT_FRONT'),
                       NIVEAU_PARALLELISME='COMPLET',
                       VERI_MODE=_F(STURM=para_sturm),
                       FILTRE_MODE=_F(SEUIL=0.0003,),
                       IMPRESSION=_F(),);


# TEST_RESU SUR QUELQUES FREQS ET COMPOSANTES DE VECTEURS PROPRES
#
# ON TESTE LES VALEURS PROPRES SITUEES AUX FRONTIERES DES BORNES
# DE CALCUL ET QUELQUES COMPOSANTES DE LA MASSE EFFECTIVE UNITAIRE
#----------------------------------------------------------------
sd_testee=mode41
TEST_RESU(RESU=(_F(NUME_ORDRE=1,TOLE_MACHINE=1.E-3,
                  PARA='FREQ',
                  RESULTAT=sd_testee,
                  VALE_CALC=4.4422183935934,),
               _F(NUME_ORDRE=1,TOLE_MACHINE=1.E-3,
                  PARA='MASS_EFFE_UN_DX',
                  RESULTAT=sd_testee,
                  VALE_CALC=9.2386176909502E-06,),
               _F(NUME_ORDRE=7,TOLE_MACHINE=1.E-3,
                  PARA='FREQ',
                  RESULTAT=sd_testee,
                  VALE_CALC=11.713585425023,),
               _F(NUME_ORDRE=7,TOLE_MACHINE=1.E-3,
                  PARA='MASS_EFFE_UN_DY',
                  RESULTAT=sd_testee,
                  VALE_CALC=0.012397003556971,),
               _F(NUME_ORDRE=15,TOLE_MACHINE=1.E-3,
                  PARA='FREQ',
                  RESULTAT=sd_testee,
                  VALE_CALC=21.031466763776,),
               _F(NUME_ORDRE=15,TOLE_MACHINE=1.E-3,
                  PARA='MASS_EFFE_UN_DZ',
                  RESULTAT=sd_testee,
                  VALE_CALC=0.17286079845718,),
               _F(NUME_ORDRE=28,TOLE_MACHINE=1.E-3,
                  PARA='FREQ',
                  RESULTAT=sd_testee,
                  VALE_CALC=31.354123521276,),
               _F(NUME_ORDRE=28,TOLE_MACHINE=1.E-3,
                  PARA='MASS_EFFE_UN_DX',
                  RESULTAT=sd_testee,
                  VALE_CALC=0.061221870951278,),                 
                  ),)

sd_testee=mode14
TEST_RESU(RESU=(_F(NUME_ORDRE=1,TOLE_MACHINE=1.E-3,
                  PARA='FREQ',
                  RESULTAT=sd_testee,
                  VALE_CALC=4.4422183935934,),
               _F(NUME_ORDRE=1,TOLE_MACHINE=1.E-3,
                  PARA='MASS_EFFE_UN_DX',
                  RESULTAT=sd_testee,
                  VALE_CALC=9.2386176911805E-06,),                  
               _F(NUME_ORDRE=7,TOLE_MACHINE=1.E-3,
                  PARA='FREQ',
                  RESULTAT=sd_testee,
                  VALE_CALC=11.713585425023,),
               _F(NUME_ORDRE=7,TOLE_MACHINE=1.E-3,
                  PARA='MASS_EFFE_UN_DY',
                  RESULTAT=sd_testee,
                  VALE_CALC=0.012397003556965,),
               _F(NUME_ORDRE=15,TOLE_MACHINE=1.E-3,
                  PARA='FREQ',
                  RESULTAT=sd_testee,
                  VALE_CALC=21.031466763776,),
               _F(NUME_ORDRE=15,TOLE_MACHINE=1.E-3,
                  PARA='MASS_EFFE_UN_DZ',
                  RESULTAT=sd_testee,
                  VALE_CALC=0.17286079845724,),
               _F(NUME_ORDRE=28,TOLE_MACHINE=1.E-3,
                  PARA='FREQ',
                  RESULTAT=sd_testee,
                  VALE_CALC=31.354123521276,),
               _F(NUME_ORDRE=28,TOLE_MACHINE=1.E-3,
                  PARA='MASS_EFFE_UN_DX',
                  RESULTAT=sd_testee,
                  VALE_CALC=0.061221870951274,),
                  ),)
sd_testee=mode22
TEST_RESU(RESU=(_F(NUME_ORDRE=1,TOLE_MACHINE=1.E-3,
                  PARA='FREQ',
                  RESULTAT=sd_testee,
                  VALE_CALC=4.4422183935934,),
               _F(NUME_ORDRE=1,TOLE_MACHINE=1.E-3,
                  PARA='MASS_EFFE_UN_DX',
                  RESULTAT=sd_testee,
                  VALE_CALC=9.238617694778E-06,),
               _F(NUME_ORDRE=7,TOLE_MACHINE=1.E-3,
                  PARA='FREQ',
                  RESULTAT=sd_testee,
                  VALE_CALC=11.713585425023,),
               _F(NUME_ORDRE=7,TOLE_MACHINE=1.E-3,
                  PARA='MASS_EFFE_UN_DY',
                  RESULTAT=sd_testee,
                  VALE_CALC=0.012397003556935),
               _F(NUME_ORDRE=15,TOLE_MACHINE=1.E-3,
                  PARA='FREQ',
                  RESULTAT=sd_testee,
                  VALE_CALC=21.031466763776,),
               _F(NUME_ORDRE=15,TOLE_MACHINE=1.E-3,
                  PARA='MASS_EFFE_UN_DZ',
                  RESULTAT=sd_testee,
                  VALE_CALC=0.17286079845817,),
               _F(NUME_ORDRE=28,TOLE_MACHINE=1.E-3,
                  PARA='FREQ',
                  RESULTAT=sd_testee,
                  VALE_CALC=31.354123521276,),
               _F(NUME_ORDRE=28,TOLE_MACHINE=1.E-3,
                  PARA='MASS_EFFE_UN_DX',
                  RESULTAT=sd_testee,
                  VALE_CALC=0.061221870951277,),
                  ),)
sd_testee=mode211
TEST_RESU(RESU=(_F(NUME_ORDRE=1,TOLE_MACHINE=1.E-3,
                  PARA='FREQ',
                  RESULTAT=sd_testee,
                  VALE_CALC=4.4422183935934,),
               _F(NUME_ORDRE=1,TOLE_MACHINE=1.E-3,
                  PARA='MASS_EFFE_UN_DX',
                  RESULTAT=sd_testee,
                  VALE_CALC=9.2386176855894E-06,),
               _F(NUME_ORDRE=7,TOLE_MACHINE=1.E-3,
                  PARA='FREQ',
                  RESULTAT=sd_testee,
                  VALE_CALC=11.713585425023,),
               _F(NUME_ORDRE=7,TOLE_MACHINE=1.E-3,
                  PARA='MASS_EFFE_UN_DY',
                  RESULTAT=sd_testee,
                  VALE_CALC=0.012397003556933,),
               _F(NUME_ORDRE=15,TOLE_MACHINE=1.E-3,
                  PARA='FREQ',
                  RESULTAT=sd_testee,
                  VALE_CALC=21.031466763776,),
               _F(NUME_ORDRE=15,TOLE_MACHINE=1.E-3,
                  PARA='MASS_EFFE_UN_DZ',
                  RESULTAT=sd_testee,
                  VALE_CALC=0.17286079845718,),
               _F(NUME_ORDRE=28,TOLE_MACHINE=1.E-3,
                  PARA='FREQ',
                  RESULTAT=sd_testee,
                  VALE_CALC=31.354123521276,),
               _F(NUME_ORDRE=28,TOLE_MACHINE=1.E-3,
                  PARA='MASS_EFFE_UN_DX',
                  RESULTAT=sd_testee,
                  VALE_CALC=0.061221870951276,),
                 ),)
sd_testee=modeSM
TEST_RESU(RESU=(_F(NUME_ORDRE=1,TOLE_MACHINE=1.E-3,
                  PARA='FREQ',
                  RESULTAT=sd_testee,
                  VALE_CALC=4.4422183935934,),
               _F(NUME_ORDRE=1,TOLE_MACHINE=1.E-3,
                  PARA='MASS_EFFE_UN_DX',
                  RESULTAT=sd_testee,
                  VALE_CALC=9.2386175810966E-06,),
               _F(NUME_ORDRE=7,TOLE_MACHINE=1.E-3,
                  PARA='FREQ',
                  RESULTAT=sd_testee,
                  VALE_CALC=11.713585425023,),
               _F(NUME_ORDRE=7,TOLE_MACHINE=1.E-3,
                  PARA='MASS_EFFE_UN_DY',
                  RESULTAT=sd_testee,
                  VALE_CALC=0.012397003557156,),
               _F(NUME_ORDRE=15,TOLE_MACHINE=1.E-3,
                  PARA='FREQ',
                  RESULTAT=sd_testee,
                  VALE_CALC=21.031466763776,),
               _F(NUME_ORDRE=15,TOLE_MACHINE=1.E-3,
                  PARA='MASS_EFFE_UN_DZ',
                  RESULTAT=sd_testee,
                  VALE_CALC=0.17286079845841,),
               _F(NUME_ORDRE=28,TOLE_MACHINE=1.E-3,
                  PARA='FREQ',
                  RESULTAT=sd_testee,
                  VALE_CALC=31.354123521276,),
               _F(NUME_ORDRE=28,TOLE_MACHINE=1.E-3,
                  PARA='MASS_EFFE_UN_DX',
                  RESULTAT=sd_testee,
                  VALE_CALC=0.061221870947462,),
                 ),)
sd_testee=modeLM
TEST_RESU(RESU=(_F(NUME_ORDRE=1,TOLE_MACHINE=1.E-3,
                  PARA='FREQ',
                  RESULTAT=sd_testee,
                  VALE_CALC=4.4422183935934,),
               _F(NUME_ORDRE=1,TOLE_MACHINE=1.E-3,
                  PARA='MASS_EFFE_UN_DX',
                  RESULTAT=sd_testee,
                  VALE_CALC=9.2386114942554E-06,),
               _F(NUME_ORDRE=7,TOLE_MACHINE=1.E-3,
                  PARA='FREQ',
                  RESULTAT=sd_testee,
                  VALE_CALC=11.713585425023,),
               _F(NUME_ORDRE=7,TOLE_MACHINE=1.E-3,
                  PARA='MASS_EFFE_UN_DY',
                  RESULTAT=sd_testee,
                  VALE_CALC=0.012397003562114,),
               _F(NUME_ORDRE=15,TOLE_MACHINE=1.E-3,
                  PARA='FREQ',
                  RESULTAT=sd_testee,
                  VALE_CALC=21.031466763776,),
               _F(NUME_ORDRE=15,TOLE_MACHINE=1.E-3,
                  PARA='MASS_EFFE_UN_DZ',
                  RESULTAT=sd_testee,
                  VALE_CALC=0.17286079846328,),
               _F(NUME_ORDRE=28,TOLE_MACHINE=1.E-3,
                  PARA='FREQ',
                  RESULTAT=sd_testee,
                  VALE_CALC=31.354123521276,),
               _F(NUME_ORDRE=28,TOLE_MACHINE=1.E-3,
                  PARA='MASS_EFFE_UN_DX',
                  RESULTAT=sd_testee,
                  VALE_CALC=0.061221870950496,),
                  ),)
sd_testee=modeJM
TEST_RESU(RESU=(_F(NUME_ORDRE=1,TOLE_MACHINE=1.E-3,
                  PARA='FREQ',
                  RESULTAT=sd_testee,
                  VALE_CALC=4.4422183935934,),
               _F(NUME_ORDRE=1,TOLE_MACHINE=1.E-3,
                  PARA='MASS_EFFE_UN_DX',
                  RESULTAT=sd_testee,
                  VALE_CALC=9.2386175939055E-06,),
               _F(NUME_ORDRE=7,TOLE_MACHINE=1.E-3,
                  PARA='FREQ',
                  RESULTAT=sd_testee,
                  VALE_CALC=11.713585425023,),
               _F(NUME_ORDRE=7,TOLE_MACHINE=1.E-3,
                  PARA='MASS_EFFE_UN_DY',
                  RESULTAT=sd_testee,
                  VALE_CALC=0.012397003565571,),
               _F(NUME_ORDRE=15,TOLE_MACHINE=1.E-3,
                  PARA='FREQ',
                  RESULTAT=sd_testee,
                  VALE_CALC=21.031466763776,),
               _F(NUME_ORDRE=15,TOLE_MACHINE=1.E-3,
                  PARA='MASS_EFFE_UN_DZ',
                  RESULTAT=sd_testee,
                  VALE_CALC=0.17286079845786,),
               _F(NUME_ORDRE=28,TOLE_MACHINE=1.E-3,
                  PARA='FREQ',
                  RESULTAT=sd_testee,
                  VALE_CALC=31.354123521276,),
               _F(NUME_ORDRE=28,TOLE_MACHINE=1.E-3,
                  PARA='MASS_EFFE_UN_DX',
                  RESULTAT=sd_testee,
                  VALE_CALC=0.061221870948937,),
                  ),)

# TEST_TABLE DES INFO_MODES
#--------------------------
sd_testee=nbmd41
TEST_TABLE(TABLE=sd_testee,REFERENCE='ANALYTIQUE',
           NOM_PARA='NB_MODE', TYPE_TEST='SOMM',
           VALE_CALC_I=40,VALE_REFE_I=40)
TEST_TABLE(TABLE=sd_testee,REFERENCE='ANALYTIQUE',
           NOM_PARA='NB_MODE', TYPE_TEST='MIN',
           VALE_CALC_I=6,VALE_REFE_I=6)    
TEST_TABLE(TABLE=sd_testee,REFERENCE='ANALYTIQUE',
           NOM_PARA='NB_MODE', TYPE_TEST='MAX',
           VALE_CALC_I=13,VALE_REFE_I=13)
#
sd_testee=nbmd14
TEST_TABLE(TABLE=sd_testee,REFERENCE='ANALYTIQUE',
           NOM_PARA='NB_MODE', TYPE_TEST='SOMM',
           VALE_CALC_I=40,VALE_REFE_I=40)
TEST_TABLE(TABLE=sd_testee,REFERENCE='ANALYTIQUE',
           NOM_PARA='NB_MODE', TYPE_TEST='MIN',
           VALE_CALC_I=6,VALE_REFE_I=6)    
TEST_TABLE(TABLE=sd_testee,REFERENCE='ANALYTIQUE',
           NOM_PARA='NB_MODE', TYPE_TEST='MAX',
           VALE_CALC_I=13,VALE_REFE_I=13)
#
sd_testee=nbmd22
TEST_TABLE(TABLE=sd_testee,REFERENCE='ANALYTIQUE',
           NOM_PARA='NB_MODE', TYPE_TEST='SOMM',
           VALE_CALC_I=40,VALE_REFE_I=40)
TEST_TABLE(TABLE=sd_testee,REFERENCE='ANALYTIQUE',
           NOM_PARA='NB_MODE', TYPE_TEST='MIN',
           VALE_CALC_I=14,VALE_REFE_I=14)    
TEST_TABLE(TABLE=sd_testee,REFERENCE='ANALYTIQUE',
           NOM_PARA='NB_MODE', TYPE_TEST='MAX',
           VALE_CALC_I=26,VALE_REFE_I=26)
#
sd_testee=nbmd211
TEST_TABLE(TABLE=sd_testee,REFERENCE='ANALYTIQUE',
           NOM_PARA='NB_MODE', TYPE_TEST='SOMM',
           VALE_CALC_I=40,VALE_REFE_I=40)
TEST_TABLE(TABLE=sd_testee,REFERENCE='ANALYTIQUE',
           NOM_PARA='NB_MODE', TYPE_TEST='MIN',
           VALE_CALC_I=13,VALE_REFE_I=13)    
TEST_TABLE(TABLE=sd_testee,REFERENCE='ANALYTIQUE',
           NOM_PARA='NB_MODE', TYPE_TEST='MAX',
           VALE_CALC_I=14,VALE_REFE_I=14)
#
sd_testee=nbmdMF
TEST_TABLE(TABLE=sd_testee,REFERENCE='ANALYTIQUE',
           NOM_PARA='NB_MODE', TYPE_TEST='SOMM',
           VALE_CALC_I=40,VALE_REFE_I=40)
TEST_TABLE(TABLE=sd_testee,REFERENCE='ANALYTIQUE',
           NOM_PARA='NB_MODE', TYPE_TEST='MIN',
           VALE_CALC_I=6,VALE_REFE_I=6)    
TEST_TABLE(TABLE=sd_testee,REFERENCE='ANALYTIQUE',
           NOM_PARA='NB_MODE', TYPE_TEST='MAX',
           VALE_CALC_I=13,VALE_REFE_I=13)
#
sd_testee=nbmdLDLT
TEST_TABLE(TABLE=sd_testee,REFERENCE='ANALYTIQUE',
           NOM_PARA='NB_MODE', TYPE_TEST='SOMM',
           VALE_CALC_I=40,VALE_REFE_I=40)
TEST_TABLE(TABLE=sd_testee,REFERENCE='ANALYTIQUE',
           NOM_PARA='NB_MODE', TYPE_TEST='MIN',
           VALE_CALC_I=6,VALE_REFE_I=6)    
TEST_TABLE(TABLE=sd_testee,REFERENCE='ANALYTIQUE',
           NOM_PARA='NB_MODE', TYPE_TEST='MAX',
           VALE_CALC_I=13,VALE_REFE_I=13)
FIN( );
