# TITRE VALIDATION DE POST_DECOLLEMENT
# ======================================================================
# COPYRIGHT (C) 1991 - 2012  EDF R&D                  WWW.CODE-ASTER.ORG
# THIS PROGRAM IS FREE SOFTWARE; YOU CAN REDISTRIBUTE IT AND/OR MODIFY
# IT UNDER THE TERMS OF THE GNU GENERAL PUBLIC LICENSE AS PUBLISHED BY
# THE FREE SOFTWARE FOUNDATION; EITHER VERSION 2 OF THE LICENSE, OR
# (AT YOUR OPTION) ANY LATER VERSION.
#
# THIS PROGRAM IS DISTRIBUTED IN THE HOPE THAT IT WILL BE USEFUL, BUT
# WITHOUT ANY WARRANTY; WITHOUT EVEN THE IMPLIED WARRANTY OF
# MERCHANTABILITY OR FITNESS FOR A PARTICULAR PURPOSE. SEE THE GNU
# GENERAL PUBLIC LICENSE FOR MORE DETAILS.
#
# YOU SHOULD HAVE RECEIVED A COPY OF THE GNU GENERAL PUBLIC LICENSE
# ALONG WITH THIS PROGRAM; IF NOT, WRITE TO EDF R&D CODE_ASTER,
#    1 AVENUE DU GENERAL DE GAULLE, 92141 CLAMART CEDEX, FRANCE.
# ======================================================================

DEBUT(CODE=_F(NIV_PUB_WEB='INTERNET'),IGNORE_ALARM='MODELISA4_9', DEBUG=_F(SDVERI='NON'))

#'MODELISA4_9'='PRESENCE DE MAILLES APPLATIES'
# Les mailles concernees sont des seg2 entre deux noeuds coincidents
# On leur affecte des DIS_TR
# Cela permet de relier entre eux differents elements du maillage brochette
# On ignore donc cette alarme

METHODE='EULER'

MAIL0=LIRE_MAILLAGE(FORMAT='MED', );

MAILLAGE = CREA_MAILLAGE(MAILLAGE=MAIL0,
                  CREA_POI1 =_F(NOM_GROUP_MA = 'PRADIER',
                                GROUP_NO = 'SRADIER'),
                     );

STICKMOD=AFFE_MODELE(  MAILLAGE=MAILLAGE,AFFE=(
                      _F(  GROUP_MA = 'POU_D_T',PHENOMENE = 'MECANIQUE',
                             MODELISATION = 'POU_D_T'),
                           _F(  GROUP_MA = 'MASSES',  PHENOMENE = 'MECANIQUE',
                             MODELISATION = 'DIS_TR'),
                           _F(  GROUP_MA = 'LIAI_NOE',PHENOMENE = 'MECANIQUE',
                             MODELISATION = 'DIS_TR'),
                           _F(  GROUP_MA = 'VRADIER',PHENOMENE = 'MECANIQUE',
                             MODELISATION = '3D'),
                           _F(  GROUP_MA = 'PRADIER',PHENOMENE = 'MECANIQUE',
                             MODELISATION = 'DIS_TR')
                           )
                        );

# ----------------------------------------------------------------------
#  DEFINITION DES MATERIAUX

MAT_1=DEFI_MATERIAU(  ELAS=_F(
                         E = 4.000000000E+10,NU = 1.494252874E-01,
                         AMOR_ALPHA = 4.5E-4, AMOR_BETA = 7.,
                         RHO = 0.000000000E+00,ALPHA = 0.000000000E+00) );

MAT_2=DEFI_MATERIAU(  ELAS=_F(
                         E = 4.000000000E+10,NU = 1.494252874E-01,
                         AMOR_ALPHA = 4.5E-4, AMOR_BETA = 7.,
                         RHO = 2.500000000E+03,ALPHA = 0.000000000E+00) );

MAT_3=DEFI_MATERIAU(  ELAS=_F(
                         E = 4.000000000E+10,NU = 1.494252874E-01,
                         AMOR_ALPHA = 4.5E-4, AMOR_BETA = 7.,
                         RHO = 2.500000000E-01,ALPHA = 0.000000000E+00) );

# CREATION DU MATERIAU CONTACT

CONTACT=DEFI_MATERIAU(
                      DIS_CONTACT = _F( ),
                      );

CHAMPMAT=AFFE_MATERIAU(   MAILLAGE=MAILLAGE,AFFE=(
                     _F(  GROUP_MA = 'MAT_1',    MATER = MAT_1),
                          _F(  GROUP_MA = 'MAT_2',    MATER = MAT_2),
                          _F(  GROUP_MA = 'VRADIER',   MATER = MAT_2),
                          _F(  GROUP_MA = 'SRADIER',   MATER = MAT_3),
                          _F(  GROUP_MA = 'PRADIER',   MATER = CONTACT),
                          )
                           );

#
# ----------------------------------------------------------------------
# AFFECTATION DES CARACTERISTIQUES ELEMENTAIRES

CARA_ELE=AFFE_CARA_ELEM( MODELE=STICKMOD,
            #COQUE=_F( GROUP_MA = 'SRADIER', EPAIS = 0.001),
            POUTRE=(

          _F(  GROUP_MA = 'SEC_2',
             SECTION = 'GENERALE',
              CARA = ('A', 'IZ', 'IY', 'AY', 'AZ', 'JX',
                     'EZ', 'EY', 'RY', 'RZ', 'RT', ),
              VALE = ( 8.700000000E+01, 2.756900000E+04, 2.756900000E+04,
                      2.000000000E+00, 2.000000000E+00, 1.000000000E+07,
                      0.000000000E+00, 0.000000000E+00, 1.000000000E+00,
                      1.000000000E+00, 1.000000000E+00, )),
          _F(  GROUP_MA = 'SEC_3',
             SECTION = 'GENERALE',
              CARA = ('A', 'IZ', 'IY', 'AY', 'AZ', 'JX',
                     'EZ', 'EY', 'RY', 'RZ', 'RT', ),
              VALE = ( 1.696000000E+02, 4.294200000E+04, 4.294200000E+04,
                      2.000000000E+00, 2.000000000E+00, 1.000000000E+07,
                      0.000000000E+00, 0.000000000E+00, 1.000000000E+00,
                      1.000000000E+00, 1.000000000E+00, )),
          _F(  GROUP_MA = 'SEC_4',
             SECTION = 'GENERALE',
              CARA = ('A', 'IZ', 'IY', 'AY', 'AZ', 'JX',
                     'EZ', 'EY', 'RY', 'RZ', 'RT', ),
              VALE = ( 9.400000000E+01, 1.250000000E+04, 1.250000000E+04,
                      7.705000000E+01, 7.705000000E+01, 1.000000000E+07,
                      0.000000000E+00, 0.000000000E+00, 1.000000000E+00,
                      1.000000000E+00, 1.000000000E+00, )),
          _F(  GROUP_MA = 'SEC_5',
             SECTION = 'GENERALE',
              CARA = ('A', 'IZ', 'IY', 'AY', 'AZ', 'JX',
                     'EZ', 'EY', 'RY', 'RZ', 'RT', ),
              VALE = ( 4.852000000E+01, 6.522400000E+03, 6.142000000E+03,
                      5.720000000E+00, 3.540000000E+00, 1.000000000E+06,
                      0.000000000E+00, 0.000000000E+00, 1.000000000E+00,
                      1.000000000E+00, 1.000000000E+00, )),
          _F(  GROUP_MA = 'SEC_6',
             SECTION = 'GENERALE',
              CARA = ('A', 'IZ', 'IY', 'AY', 'AZ', 'JX',
                     'EZ', 'EY', 'RY', 'RZ', 'RT', ),
              VALE = ( 4.852000000E+01, 6.522400000E+03, 6.142000000E+03,
                      6.800000000E+00, 3.950000000E+00, 1.000000000E+06,
                      0.000000000E+00, 0.000000000E+00, 1.000000000E+00,
                      1.000000000E+00, 1.000000000E+00, )),
          _F(  GROUP_MA = 'SEC_7',
             SECTION = 'GENERALE',
              CARA = ('A', 'IZ', 'IY', 'AY', 'AZ', 'JX',
                     'EZ', 'EY', 'RY', 'RZ', 'RT', ),
              VALE = ( 2.328000000E+02, 1.095800000E+04, 2.128000000E+04,
                      4.950000000E+00, 1.870000000E+00, 1.000000000E+07,
                      0.000000000E+00, 0.000000000E+00, 1.000000000E+00,
                      1.000000000E+00, 1.000000000E+00, )),
          _F(  GROUP_MA = 'SEC_8',
             SECTION = 'GENERALE',
              CARA = ('A', 'IZ', 'IY', 'AY', 'AZ', 'JX',
                     'EZ', 'EY', 'RY', 'RZ', 'RT', ),
              VALE = ( 2.277000000E+02, 2.300000000E+04, 2.107900000E+04,
                      4.550000000E+00, 3.340000000E+00, 1.000000000E+07,
                      0.000000000E+00, 0.000000000E+00, 1.000000000E+00,
                      1.000000000E+00, 1.000000000E+00, )),
          _F(  GROUP_MA = 'SEC_9',
             SECTION = 'GENERALE',
              CARA = ('A', 'IZ', 'IY', 'AY', 'AZ', 'JX',
                     'EZ', 'EY', 'RY', 'RZ', 'RT', ),
              VALE = ( 1.490000000E+01, 1.900000000E+02, 1.500000000E+02,
                      1.860000000E+00, 1.770000000E+00, 1.000000000E+05,
                      0.000000000E+00, 0.000000000E+00, 1.000000000E+00,
                      1.000000000E+00, 1.000000000E+00, )),
          _F(  GROUP_MA = 'SEC_10',
             SECTION = 'GENERALE',
              CARA = ('A', 'IZ', 'IY', 'AY', 'AZ', 'JX',
                     'EZ', 'EY', 'RY', 'RZ', 'RT', ),
              VALE = ( 1.430000000E+01, 1.200000000E+02, 1.170000000E+02,
                      3.570000000E+00, 2.200000000E+00, 1.000000000E+05,
                      0.000000000E+00, 0.000000000E+00, 1.000000000E+00,
                      1.000000000E+00, 1.000000000E+00, )),
          _F(  GROUP_MA = 'SEC_11',
             SECTION = 'GENERALE',
              CARA = ('A', 'IZ', 'IY', 'AY', 'AZ', 'JX',
                     'EZ', 'EY', 'RY', 'RZ', 'RT', ),
              VALE = ( 5.348000000E+01, 5.486000000E+02, 5.486000000E+02,
                      7.640000000E+01, 7.640000000E+01, 1.000000000E+05,
                      0.000000000E+00, 0.000000000E+00, 1.000000000E+00,
                      1.000000000E+00, 1.000000000E+00, )),
          _F(  GROUP_MA = 'SEC_12',
             SECTION = 'GENERALE',
              CARA = ('A', 'IZ', 'IY', 'AY', 'AZ', 'JX',
                     'EZ', 'EY', 'RY', 'RZ', 'RT', ),
              VALE = ( 5.348000000E+01, 5.486000000E+02, 4.253000000E+02,
                      1.720000000E+00, 1.060000000E+00, 1.000000000E+05,
                      0.000000000E+00, 0.000000000E+00, 1.000000000E+00,
                      1.000000000E+00, 1.000000000E+00, )),
          _F(  GROUP_MA = 'SEC_13',
             SECTION = 'GENERALE',
              CARA = ('A', 'IZ', 'IY', 'AY', 'AZ', 'JX',
                     'EZ', 'EY', 'RY', 'RZ', 'RT', ),
              VALE = ( 4.521000000E+01, 3.261000000E+02, 3.261000000E+02,
                      1.370000000E+00, 1.370000000E+00, 1.000000000E+05,
                      0.000000000E+00, 0.000000000E+00, 1.000000000E+00,
                      1.000000000E+00, 1.000000000E+00, )),
          _F(  GROUP_MA = 'SEC_14',
             SECTION = 'GENERALE',
              CARA = ('A', 'IZ', 'IY', 'AY', 'AZ', 'JX',
                     'EZ', 'EY', 'RY', 'RZ', 'RT', ),
              VALE = ( 4.000000000E+01, 5.934000000E+02, 1.000000000E+00,
                      2.080000000E+00, 1.000000000E+03, 1.000000000E+05,
                      0.000000000E+00, 0.000000000E+00, 1.000000000E+00,
                      1.000000000E+00, 1.000000000E+00, ))),
        DISCRET=(
         # ON CARACTERISE LES ELEMENTS PAR DES VALEURS NULLES POUR EVITER l'ALARME
          _F(MAILLE=('MAS2','MAS3','MAS4','MAS5','MAS6','MAS7','MAS8','MAS9','MAS10','MAS11',
                     'MAS12','MAS13','MAS14','MAS15','MAS16','MAS17','MAS18','MAS19','MAS20','MAS21',
                     'MAS22','MAS23','MAS24','MAS25','MAS26','MAS27',),
             CARA='K_TR_D_N', VALE=(0.0,0.0,0.0,0.0,0.0,0.0,),),
          _F(MAILLE=('MAS2','MAS3','MAS4','MAS5','MAS6','MAS7','MAS8','MAS9','MAS10','MAS11',
                     'MAS12','MAS13','MAS14','MAS15','MAS16','MAS17','MAS18','MAS19','MAS20','MAS21',
                     'MAS22','MAS23','MAS24','MAS25','MAS26','MAS27',),
             CARA='A_TR_D_N', VALE=(0.0,0.0,0.0,0.0,0.0,0.0,),),
            #MASSES ET INERTIES LOCALISEES
          _F(  MAILLE = 'MAS2',     CARA = 'M_TR_D_N',
              VALE = ( 9.768000000E+06, 1.484000000E+09, 1.484000000E+09,
                      0.000000000E+00, 0.000000000E+00, 0.000000000E+00,
                      0.000000000E+00, 0.000000000E+00, 0.000000000E+00,
                      0.000000000E+00, )),
          _F(  MAILLE = 'MAS3',     CARA = 'M_TR_D_N',
              VALE = ( 2.827000000E+06, 9.359000000E+08, 9.359000000E+08,
                      0.000000000E+00, 0.000000000E+00, 0.000000000E+00,
                      0.000000000E+00, 0.000000000E+00, 0.000000000E+00,
                      0.000000000E+00, )),
          _F(  MAILLE = 'MAS4',     CARA = 'M_TR_D_N',
              VALE = ( 2.827000000E+06, 9.359000000E+08, 9.359000000E+08,
                      0.000000000E+00, 0.000000000E+00, 0.000000000E+00,
                      0.000000000E+00, 0.000000000E+00, 0.000000000E+00,
                      0.000000000E+00, )),
          _F(  MAILLE = 'MAS5',     CARA = 'M_TR_D_N',
              VALE = ( 1.921000000E+06, 6.176000000E+08, 6.176000000E+08,
                      0.000000000E+00, 0.000000000E+00, 0.000000000E+00,
                      0.000000000E+00, 0.000000000E+00, 0.000000000E+00,
                      0.000000000E+00, )),
          _F(  MAILLE = 'MAS6',     CARA = 'M_TR_D_N',
              VALE = ( 2.175000000E+06, 7.074000000E+08, 7.074000000E+08,
                      0.000000000E+00, 0.000000000E+00, 0.000000000E+00,
                      0.000000000E+00, 0.000000000E+00, 0.000000000E+00,
                      0.000000000E+00, )),
          _F(  MAILLE = 'MAS7',     CARA = 'M_TR_D_N',
              VALE = ( 2.729000000E+06, 9.008000000E+08, 9.008000000E+08,
                      0.000000000E+00, 0.000000000E+00, 0.000000000E+00,
                      0.000000000E+00, 0.000000000E+00, 0.000000000E+00,
                      0.000000000E+00, )),
          _F(  MAILLE = 'MAS8',     CARA = 'M_TR_D_N',
              VALE = ( 4.020000000E+06, 9.107000000E+08, 9.107000000E+08,
                      0.000000000E+00, 0.000000000E+00, 0.000000000E+00,
                      0.000000000E+00, 0.000000000E+00, 0.000000000E+00,
                      0.000000000E+00, )),
          _F(  MAILLE = 'MAS9',     CARA = 'M_TR_D_N',
              VALE = ( 3.554000000E+06, 8.840000000E+08, 8.840000000E+08,
                      1.768000000E+09, 0.000000000E+00, 0.000000000E+00,
                      0.000000000E+00, 0.000000000E+00, 0.000000000E+00,
                      0.000000000E+00, )),
          _F(  MAILLE = 'MAS10',    CARA = 'M_TR_D_N',
              VALE = ( 1.000000000E+00, 1.000000000E+00, 1.000000000E+00,
                      2.000000000E+00, 0.000000000E+00, 0.000000000E+00,
                      0.000000000E+00, 0.000000000E+00, 0.000000000E+00,
                      0.000000000E+00, )),
          _F(  MAILLE = 'MAS11',    CARA = 'M_TR_D_N',
              VALE = ( 2.098000000E+06, 5.200000000E+08, 5.200000000E+08,
                      1.040000000E+09, 0.000000000E+00, 0.000000000E+00,
                      0.000000000E+00, 0.000000000E+00, 0.000000000E+00,
                      0.000000000E+00, )),
          _F(  MAILLE = 'MAS12',    CARA = 'M_TR_D_N',
              VALE = ( 5.246000000E+06, 1.393000000E+09, 1.393000000E+09,
                      2.786000000E+09, 0.000000000E+00, 0.000000000E+00,
                      0.000000000E+00, 0.000000000E+00, 0.000000000E+00,
                      0.000000000E+00, )),
          _F(  MAILLE = 'MAS13',    CARA = 'M_TR_D_N',
              VALE = ( 5.858000000E+06, 1.525000000E+09, 1.525000000E+09,
                      3.050000000E+09, 0.000000000E+00, 0.000000000E+00,
                      0.000000000E+00, 0.000000000E+00, 0.000000000E+00,
                      0.000000000E+00, )),
          _F(  MAILLE = 'MAS14',    CARA = 'M_TR_D_N',
              VALE = ( 6.810000000E+06, 1.740000000E+09, 1.740000000E+09,
                      3.480000000E+09, 0.000000000E+00, 0.000000000E+00,
                      0.000000000E+00, 0.000000000E+00, 0.000000000E+00,
                      0.000000000E+00, )),
          _F(  MAILLE = 'MAS15',    CARA = 'M_TR_D_N',
              VALE = ( 1.000000000E+07, 2.020000000E+09, 2.020000000E+09,
                      4.040000000E+09, 0.000000000E+00, 0.000000000E+00,
                      0.000000000E+00, 0.000000000E+00, 0.000000000E+00,
                      0.000000000E+00, )),
          _F(  MAILLE = 'MAS16',    CARA = 'M_TR_D_N',
              VALE = ( 3.000000000E+05, 3.120000000E+07, 2.690000000E+07,
                      5.810000000E+07, 0.000000000E+00, 0.000000000E+00,
                      0.000000000E+00, 0.000000000E+00, 0.000000000E+00,
                      0.000000000E+00, )),
          _F(  MAILLE = 'MAS17',    CARA = 'M_TR_D_N',
              VALE = ( 2.750000000E+05, 5.700000000E+06, 3.500000000E+06,
                      9.200000000E+06, 0.000000000E+00, 0.000000000E+00,
                      0.000000000E+00, 0.000000000E+00, 0.000000000E+00,
                      0.000000000E+00, )),
          _F(  MAILLE = 'MAS18',    CARA = 'M_TR_D_N',
              VALE = ( 2.960000000E+06, 4.340000000E+08, 4.260000000E+08,
                      8.600000000E+08, 0.000000000E+00, 0.000000000E+00,
                      0.000000000E+00, 0.000000000E+00, 0.000000000E+00,
                      0.000000000E+00, )),
          _F(  MAILLE = 'MAS19',    CARA = 'M_TR_D_N',
              VALE = ( 1.130000000E+06, 3.620000000E+07, 3.190000000E+07,
                      6.810000000E+07, 0.000000000E+00, 0.000000000E+00,
                      0.000000000E+00, 0.000000000E+00, 0.000000000E+00,
                      0.000000000E+00, )),
          _F(  MAILLE = 'MAS20',    CARA = 'M_TR_D_N',
              VALE = ( 4.230000000E+06, 5.360000000E+08, 5.560000000E+08,
                      1.091000000E+09, 0.000000000E+00, 0.000000000E+00,
                      0.000000000E+00, 0.000000000E+00, 0.000000000E+00,
                      0.000000000E+00, )),
          _F(  MAILLE = 'MAS21',    CARA = 'M_TR_D_N',
              VALE = ( 3.260000000E+06, 5.390000000E+07, 6.750000000E+07,
                      1.214000000E+08, 0.000000000E+00, 0.000000000E+00,
                      0.000000000E+00, 0.000000000E+00, 0.000000000E+00,
                      0.000000000E+00, )),
          _F(  MAILLE = 'MAS22',    CARA = 'M_TR_D_N',
              VALE = ( 4.930000000E+06, 5.500000000E+08, 5.280000000E+08,
                      1.078000000E+09, 0.000000000E+00, 0.000000000E+00,
                      0.000000000E+00, 0.000000000E+00, 0.000000000E+00,
                      0.000000000E+00, )),
          _F(  MAILLE = 'MAS23',    CARA = 'M_TR_D_N',
              VALE = ( 1.890000000E+06, 1.700000000E+08, 1.000000000E+00,
                      1.700000000E+08, 0.000000000E+00, 0.000000000E+00,
                      0.000000000E+00, 0.000000000E+00, 0.000000000E+00,
                      0.000000000E+00, )),
          _F(  MAILLE = 'MAS24',    CARA = 'M_TR_D_N',
              VALE = ( 6.980000000E+06, 9.130000000E+08, 6.930000000E+08,
                      1.606000000E+09, 0.000000000E+00, 0.000000000E+00,
                      0.000000000E+00, 0.000000000E+00, 0.000000000E+00,
                      0.000000000E+00, )),
          _F(  MAILLE = 'MAS25',    CARA = 'M_TR_D_N',
              VALE = ( 3.800000000E+05, 1.000000000E+00, 1.000000000E+00,
                      1.000000000E+00, 0.000000000E+00, 0.000000000E+00,
                      0.000000000E+00, 0.000000000E+00, 0.000000000E+00,
                      0.000000000E+00, )),
          _F(  MAILLE = 'MAS26',    CARA = 'M_TR_D_N',
              VALE = ( 2.700000000E+05, 1.000000000E+00, 1.000000000E+00,
                      1.000000000E+00, 0.000000000E+00, 0.000000000E+00,
                      0.000000000E+00, 0.000000000E+00, 0.000000000E+00,
                      0.000000000E+00, )),
          _F(  MAILLE = 'MAS27',    CARA = 'M_TR_D_N',
              VALE = ( 1.000000000E+05, 1.000000000E+00, 1.000000000E+00,
                      1.000000000E+00, 0.000000000E+00, 0.000000000E+00,
                      0.000000000E+00, 0.000000000E+00, 0.000000000E+00,
                      0.000000000E+00, )),
          # FIN DES CARACTERISTIQUES DES MASSES

            # LIAISONS SIMPLES NOEUD-NOEUD
            # ON CARACTERISE LES ELEMENTS PAR DES VALEURS NULLES POUR EVITER l'ALARME
          _F(GROUP_MA = ('RLN_1','RLN_2','RLN_3','RLN_4','RLN_5',),
             CARA = 'A_TR_D_L', REPERE = 'GLOBAL',
             VALE = ( 0.0, 0.0, 0.0, 0.0, 0.0 ,0.0,),),

          _F(  GROUP_MA = 'RLN_1',    CARA = 'K_TR_D_L',
            VALE = ( 1.000000000E+00, 1.320000000E+10, 7.080000000E+08,
                   1.424000000E+10, 1.000000000E+00, 1.000000000E+13,),
                  REPERE = 'GLOBAL'),
          _F(  GROUP_MA = 'RLN_2',    CARA = 'K_TR_D_L',
            VALE = ( 7.800000000E+10, 1.040000000E+11, 6.160000000E+09,
                   1.632000000E+11, 5.560000000E+10, 1.000000000E+14,),
                  REPERE = 'GLOBAL'),
          _F(  GROUP_MA = 'RLN_3',    CARA = 'K_TR_D_L',
            VALE = ( 1.692000000E+11, 1.840000000E+11, 1.872000000E+10,
                   7.600000000E+11, 1.800000000E+11, 1.000000000E+14,),
                  REPERE = 'GLOBAL'),
          _F(  GROUP_MA = 'RLN_4',    CARA = 'K_TR_D_L',
            VALE = ( 0.000000000E+00, 2.000000000E+11, 5.872000000E+10,
                   4.039000000E+12, 0.000000000E+00, 1.000000000E+14,),
                  REPERE = 'GLOBAL'),
          _F(  GROUP_MA = 'RLN_5',    CARA = 'K_TR_D_L',
            VALE = ( 1.900000000E+11, 1.900000000E+11, 2.000000000E+09,
                   5.000000000E+11, 5.000000000E+11, 1.000000000E+14,),
                  REPERE = 'GLOBAL')),

         ORIENTATION=_F(  GROUP_MA = 'PRADIER',
                          CARA = 'VECT_X_Y',
                          VALE = ( 0., 0., -1., 0., 1., 0., ),
                                                              ),

  RIGI_PARASOL=_F(
     GROUP_MA = 'SRADIER', GROUP_MA_POI1 = 'PRADIER',
     COEF_GROUP = 1., GROUP_NO_CENTRE = 'P1',
      CARA = ( 'K_TR_D_N', 'A_TR_D_N'),
      VALE = (  6.295000000E+11, 6.295000000E+11, 6.864000000E+11, 3.188000000E+14, 3.188000000E+14, 3.2E14,
               0.0, 0.0, 0.0, 0.0, 0.0, 0.0,),),
)

#
# LA STRUCTURE EST RIGIDIFIEE A L INTERFACE
#------------------------------------------

COND_LIM=AFFE_CHAR_MECA(  MODELE=STICKMOD,LIAISON_SOLIDE=(
                   _F(  GROUP_NO = ('HRADIER',)),
                   _F(  GROUP_NO = ('SRADIER',))),LIAISON_UNIF=(
                     _F( GROUP_MA = 'RLN_4',  DDL = 'DX'),
                     _F( GROUP_MA = 'RLN_4',  DDL = 'DRY'))
                                             );


# --- EXCITATION -------------------------------------------------------

LBNSNL1=DEFI_FONCTION(  NOM_RESU='ACCE',  NOM_PARA='INST',
                             PROL_GAUCHE='EXCLU',  PROL_DROITE='EXCLU',
                             VALE=(
      0.00000E+00,   9.98700E-02,   1.00000E-02,   6.60700E-02,
      2.00000E-02,  -5.65000E-03,   3.00000E-02,  -9.46800E-02,
      4.00000E-02,  -1.72640E-01,   5.00000E-02,  -2.31410E-01,
      6.00000E-02,  -2.59730E-01,   7.00000E-02,  -2.45200E-01,
      8.00000E-02,  -2.28080E-01,   9.00000E-02,  -2.07100E-01,
      1.00000E-01,  -1.92290E-01,   1.10000E-01,  -1.84380E-01,
      1.20000E-01,  -1.73390E-01,   1.30000E-01,  -1.47300E-01,
      1.40000E-01,  -1.00260E-01,   1.50000E-01,  -5.68800E-02,
      1.60000E-01,  -2.75300E-02,   1.70000E-01,  -1.66600E-02,
      1.80000E-01,  -2.89500E-02,   1.90000E-01,  -2.56100E-02,
      2.00000E-01,  -2.44000E-03,   2.10000E-01,   5.10100E-02,
      2.20000E-01,   1.18910E-01,   2.30000E-01,   1.72110E-01,
      2.40000E-01,   2.08440E-01,   2.50000E-01,   1.87440E-01,
      2.60000E-01,   1.52490E-01,   2.70000E-01,   1.13890E-01,
      2.80000E-01,   8.58600E-02,   2.90000E-01,   7.94000E-02,
      3.00000E-01,   7.14700E-02,   3.10000E-01,   6.51100E-02,
      3.20000E-01,   3.62200E-02,   3.30000E-01,  -1.56000E-03,
      3.40000E-01,  -5.13700E-02,   3.50000E-01,  -1.04740E-01,
      3.60000E-01,  -1.58760E-01,   3.70000E-01,  -2.09020E-01,
      3.80000E-01,  -2.40350E-01,   3.90000E-01,  -2.76940E-01,
# ... 580 like lines cut
      1.20000E+01,   0.00000E+00,     )
                          );
# AMPLITUDE 0.25 G

ACCELERO=CALC_FONCTION( COMB=_F( FONCTION = LBNSNL1, COEF = 2.45) );

# PESANTEUR VERTICALE

CHAPP=AFFE_CHAR_MECA(MODELE=STICKMOD,
                      PESANTEUR= _F(GRAVITE=9.81,
                                    DIRECTION=(0.,0.,-1.,),),);

#
#  MONO-APPUI EN X

MONOX=AFFE_CHAR_MECA(MODELE=STICKMOD,
                      PESANTEUR= _F(GRAVITE=1.0,
                                    DIRECTION=(1.0,0.0,0.0,),),);


#
nbinst=1000;

TEMPLI=DEFI_LIST_REEL(DEBUT=0.0,
                      INTERVALLE=_F(JUSQU_A=5.00,
                                    NOMBRE=nbinst,),);

L_INST=DEFI_LIST_REEL(DEBUT=-1.0,
                      INTERVALLE=_F(JUSQU_A=0.0,
                                    NOMBRE=1,),);

EVOL=STAT_NON_LINE(MODELE=STICKMOD,
                      CHAM_MATER=CHAMPMAT,
                      CARA_ELEM=CARA_ELE,
                      SOLVEUR=_F(RENUM='METIS',
                                 STOP_SINGULIER='NON',
                                 METHODE='MULT_FRONT',
                                 NPREC=15,
                                 SYME='NON'),
                      EXCIT=(
                             _F(CHARGE=COND_LIM,),
                             _F(CHARGE=CHAPP,),),
                      COMPORTEMENT=(_F(RELATION='ELAS',
                                    TOUT='OUI',),
                                 _F(RELATION='DIS_CHOC',
                                    GROUP_MA='PRADIER',),),
                      INCREMENT=_F(LIST_INST=L_INST,),
                      NEWTON=_F(REAC_ITER=1,
                                PREDICTION='ELASTIQUE'),
                      CONVERGENCE=_F(RESI_GLOB_RELA=1e-08,
                                     ITER_GLOB_MAXI=10,),);

ACCE0 = CREA_CHAMP(TYPE_CHAM='NOEU_DEPL_R',OPERATION='AFFE',MODELE=STICKMOD,
                   AFFE=_F(TOUT='OUI',NOM_CMP=('DX', 'DY', 'DZ', 'DRX', 'DRY', 'DRZ' ,),
                                      VALE = (0., 0., 0.,0., 0., 0.,),),);


EVOL=DYNA_NON_LINE(reuse=EVOL,MODELE=STICKMOD,
                      CHAM_MATER=CHAMPMAT,
                      CARA_ELEM=CARA_ELE,

                      EXCIT=(
                             _F(CHARGE=COND_LIM,),
                             _F(CHARGE=CHAPP,),
                             _F(CHARGE=MONOX,
                                FONC_MULT=ACCELERO,),),
                      COMPORTEMENT=(_F(RELATION='ELAS',
                                    TOUT='OUI',),
                                 _F(RELATION='DIS_CHOC',
                                    GROUP_MA='PRADIER',),),
                      ETAT_INIT=_F(INST=0.0,
                                   EVOL_NOLI=EVOL,
#  On impose explicitement une acceleration initiale nulle car la matrice de masse etant singuliere
#  a cause du modele (discrets sans masses), on ne peut calculer une acceleration non nulle :
                                   ACCE=ACCE0,),
                      INCREMENT=_F(LIST_INST=TEMPLI,INST_FIN=3.2,),
                      SCHEMA_TEMPS=_F(SCHEMA='HHT',ALPHA=-0.0,
                                      FORMULATION='DEPLACEMENT'),
                      NEWTON=_F(REAC_ITER=1,),
                      CONVERGENCE=_F(RESI_GLOB_RELA=1e-06,
                                     ITER_GLOB_MAXI=20,),
                      ARCHIVAGE=_F(LIST_INST=TEMPLI,),);

#
# CALCUL DU POURCENTAGE DE DECOLLEMENT A CHAQUE INSTANT
#------------------------------------------------------

TB=POST_DECOLLEMENT(RESULTAT=EVOL,
                    GROUP_MA='SRADIER',
                    INFO=2)

TEST_TABLE(CRITERE='RELATIF',
           VALE_CALC=0.0,
           
           NOM_PARA='%DECOL',
           TABLE=TB,
           FILTRE=_F(NOM_PARA='INST',
                     VALE=3.1299999999999999,),
           )

TEST_TABLE(CRITERE='RELATIF',
           VALE_CALC=0.61110755195604,
           
           NOM_PARA='%DECOL',
           TABLE=TB,
           FILTRE=_F(NOM_PARA='INST',
                     VALE=3.1349999999999998,),
           )

TEST_TABLE(CRITERE='RELATIF',
           VALE_CALC=2.4085153030045,
           
           NOM_PARA='%DECOL',
           TABLE=TB,
           FILTRE=_F(NOM_PARA='INST',
                     VALE=3.1499999999999999,),
           )

TEST_TABLE(CRITERE='RELATIF',
           VALE_CALC=0.61110755195604,
           
           NOM_PARA='%DECOL',
           TABLE=TB,
           FILTRE=_F(NOM_PARA='INST',
                     VALE=3.165,),
           )

TEST_TABLE(CRITERE='RELATIF',
           VALE_CALC=0.0,
           
           NOM_PARA='%DECOL',
           TABLE=TB,
           FILTRE=_F(NOM_PARA='INST',
                     VALE=3.1699999999999999,),
           )

FIN( );
