# MODIF  DATE 10/10/2012   AUTEUR COURTOIS M.COURTOIS 
# TITRE  : CAS-TEST PERMETTANT LA VERIFICATION DU MOT-CLE DNOR DE L'OPERATEUR AFFE_CHAR_MECA
# zzzz238c.para = tps_job 60 mem_job 256Mo ncpus 1 liste_test S
#            CONFIGURATION MANAGEMENT OF EDF VERSION
# ======================================================================
# COPYRIGHT (C) 1991 - 2012  EDF R&D                  WWW.CODE-ASTER.ORG
# THIS PROGRAM IS FREE SOFTWARE; YOU CAN REDISTRIBUTE IT AND/OR MODIFY  
# IT UNDER THE TERMS OF THE GNU GENERAL PUBLIC LICENSE AS PUBLISHED BY  
# THE FREE SOFTWARE FOUNDATION; EITHER VERSION 2 OF THE LICENSE, OR     
# (AT YOUR OPTION) ANY LATER VERSION.                                                    
#                                                                       
# THIS PROGRAM IS DISTRIBUTED IN THE HOPE THAT IT WILL BE USEFUL, BUT   
# WITHOUT ANY WARRANTY; WITHOUT EVEN THE IMPLIED WARRANTY OF            
# MERCHANTABILITY OR FITNESS FOR A PARTICULAR PURPOSE. SEE THE GNU      
# GENERAL PUBLIC LICENSE FOR MORE DETAILS.                              
#                                                                       
# YOU SHOULD HAVE RECEIVED A COPY OF THE GNU GENERAL PUBLIC LICENSE     
# ALONG WITH THIS PROGRAM; IF NOT, WRITE TO EDF R&D CODE_ASTER,         
#    1 AVENUE DU GENERAL DE GAULLE, 92141 CLAMART CEDEX, FRANCE.        
# ======================================================================
# zzzz238c.para = tps_job 60 mem_job 256Mo ncpus 1 liste_test S
#            CONFIGURATION MANAGEMENT OF EDF VERSION

DEBUT(CODE=_F(NOM='ZZZZ238C',NIV_PUB_WEB='INTERNET'),DEBUG=_F(SDVERI='OUI'))

MA2 = LIRE_MAILLAGE(FORMAT='MED',)

MA1=CREA_MAILLAGE(MAILLAGE=MA2,
                  LINE_QUAD=_F(TOUT='OUI',),);

MA=CREA_MAILLAGE(MAILLAGE=MA1,
                  PENTA15_18=_F(TOUT='OUI',PREF_NOEUD='NP'),);


MA = DEFI_GROUP(reuse=MA, MAILLAGE=MA,
                CREA_GROUP_NO=(_F(GROUP_MA='DROITE'),
                               _F(GROUP_MA='GAUCHE'),),)

MO=AFFE_MODELE( MAILLAGE=MA,
                AFFE=_F( TOUT = 'OUI',
                         PHENOMENE = 'MECANIQUE',
                         MODELISATION = '3D')  )

MAT=DEFI_MATERIAU( ELAS=_F( E = 200000.,
                            NU = 0.,),)

CHMAT=AFFE_MATERIAU( MAILLAGE=MA,
                     AFFE=_F( TOUT = 'OUI', 
                              MATER = MAT,),)

CHBLO = AFFE_CHAR_MECA( MODELE=MO,
                        DDL_IMPO=_F( GROUP_NO ='GAUCHE', 
                                     DX=0.0, DY=0.0, DZ = 0.0),)

CHDNOR = AFFE_CHAR_MECA( MODELE=MO,
                         FACE_IMPO=_F( GROUP_MA ='DROITE', 
                                       DNOR=0.15),)

SOL = MECA_STATIQUE( MODELE=MO,
                     CHAM_MATER=CHMAT,
                     EXCIT=( _F(CHARGE = CHBLO),
                             _F(CHARGE = CHDNOR),),)

TEST_RESU(RESU=(_F(NUME_ORDRE=1,
                   GROUP_NO='H',
                   REFERENCE='AUTRE_ASTER',
                   RESULTAT=SOL,
                   NOM_CHAM='DEPL',
                   NOM_CMP='DX',
                   VALE_CALC=0.109688941,
                   VALE_REFE=0.10986534000000001,
                   PRECISION=3.0000000000000001E-3,),
                _F(NUME_ORDRE=1,
                   GROUP_NO='H',
                   REFERENCE='AUTRE_ASTER',
                   RESULTAT=SOL,
                   NOM_CHAM='DEPL',
                   NOM_CMP='DY',
                   VALE_CALC=0.109727288,
                   VALE_REFE=0.10975894999999999,
                   PRECISION=0.014999999999999999,),
                _F(NUME_ORDRE=1,
                   GROUP_NO='H',
                   REFERENCE='AUTRE_ASTER',
                   RESULTAT=SOL,
                   NOM_CHAM='DEPL',
                   NOM_CMP='DZ',
                   VALE_CALC=-0.017401956,
                   VALE_REFE=-0.017046775,
                   PRECISION=0.070000000000000007,),
                _F(NUME_ORDRE=1,
                   GROUP_NO='I',
                   REFERENCE='AUTRE_ASTER',
                   RESULTAT=SOL,
                   NOM_CHAM='DEPL',
                   NOM_CMP='DX',
                   VALE_CALC=0.107396430,
                   VALE_REFE=0.10734417,),
                _F(NUME_ORDRE=1,
                   GROUP_NO='I',
                   REFERENCE='AUTRE_ASTER',
                   RESULTAT=SOL,
                   NOM_CHAM='DEPL',
                   NOM_CMP='DY',
                   VALE_CALC=0.107339926,
                   VALE_REFE=0.1072603,),
                _F(NUME_ORDRE=1,
                   GROUP_NO='I',
                   REFERENCE='AUTRE_ASTER',
                   RESULTAT=SOL,
                   NOM_CHAM='DEPL',
                   NOM_CMP='DZ',
                   VALE_CALC=-0.012875180,
                   VALE_REFE=-0.013223189,
                   PRECISION=0.070000000000000007,),
                _F(NUME_ORDRE=1,
                   GROUP_NO='J',
                   REFERENCE='ANALYTIQUE',
                   RESULTAT=SOL,
                   NOM_CHAM='DEPL',
                   NOM_CMP='DX',
                   VALE_CALC=0.106137138,
                   VALE_REFE=0.10606599999999999,),
                _F(NUME_ORDRE=1,
                   GROUP_NO='J',
                   REFERENCE='ANALYTIQUE',
                   RESULTAT=SOL,
                   NOM_CHAM='DEPL',
                   NOM_CMP='DY',
                   VALE_CALC=0.105994896,
                   VALE_REFE=0.10606599999999999,),
                _F(NUME_ORDRE=1,
                   GROUP_NO='J',
                   REFERENCE='ANALYTIQUE',
                   RESULTAT=SOL,
                   NOM_CHAM='DEPL',
                   NOM_CMP='DZ',
                   VALE_CALC=-4.29777741E-16,
                   VALE_REFE=0.0,
                   CRITERE='ABSOLU',),
                ),
          )

FIN()


