# person_in_charge: marina.bottoni at edf.fr
# TITRE COUPLAGE ASTER ECREVISSE ROTOTRANSLATION
# ======================================================================
# COPYRIGHT (C) 1991 - 2013  EDF R&D                  WWW.CODE-ASTER.ORG
# THIS PROGRAM IS FREE SOFTWARE; YOU CAN REDISTRIBUTE IT AND/OR MODIFY
# IT UNDER THE TERMS OF THE GNU GENERAL PUBLIC LICENSE AS PUBLISHED BY
# THE FREE SOFTWARE FOUNDATION; EITHER VERSION 2 OF THE LICENSE, OR
# (AT YOUR OPTION) ANY LATER VERSION.
#
# THIS PROGRAM IS DISTRIBUTED IN THE HOPE THAT IT WILL BE USEFUL, BUT
# WITHOUT ANY WARRANTY; WITHOUT EVEN THE IMPLIED WARRANTY OF
# MERCHANTABILITY OR FITNESS FOR A PARTICULAR PURPOSE. SEE THE GNU
# GENERAL PUBLIC LICENSE FOR MORE DETAILS.
#
# YOU SHOULD HAVE RECEIVED A COPY OF THE GNU GENERAL PUBLIC LICENSE
# ALONG WITH THIS PROGRAM; IF NOT, WRITE TO EDF R&D CODE_ASTER,
#    1 AVENUE DU GENERAL DE GAULLE, 92141 CLAMART CEDEX, FRANCE.
# ======================================================================

DEBUT(CODE=_F(NIV_PUB_WEB='INTERNET',),
      PAR_LOT='NON',
      IMPR_MACRO='NON',
      DEBUG=_F(HIST_ETAPE='OUI'))

pr_int   = 10.E5
pr_atmos = 1.E5
temp_ref = 20.0
temp_int = 140.0
temp_ext = temp_ref


# MESH
# -------------------------------------
MAIL = LIRE_MAILLAGE(FORMAT='MED',)

MAIL = DEFI_GROUP(
            reuse         = MAIL,
            MAILLAGE      = MAIL,
            CREA_GROUP_NO = (_F(GROUP_MA = ('BETON1','FIXE1','INTRA1','EXTRA1',
                                            'BETON2','FIXE2','INTRA2','EXTRA2',
                                            'BFISH1','BFISB1','BFISH2','BFISB2',),),),
                )

MAIL = MODI_MAILLAGE(
                  reuse        = MAIL,
                  MAILLAGE     = MAIL,
                  ORIE_PEAU_2D = (_F(GROUP_MA=('FIXE1','INTRA1','EXTRA1',
                                               'FIXE2','INTRA2','EXTRA2',
                                               'BFISH1','BFISB1',
                                               'BFISH2','BFISB2',),),),
                    )



# DEFINITION OF MODELS AND MATERIALS
# -------------------------------------
MODMECA = AFFE_MODELE(
                  MAILLAGE = MAIL,
                  AFFE     = (_F(GROUP_MA = ('BETON1','FIXE1','INTRA1','EXTRA1',
                                             'BETON2','FIXE2','INTRA2','EXTRA2',
                                             'BFISH1','BFISB1','BFISH2','BFISB2',),
                                 PHENOMENE ='MECANIQUE',
                                 MODELISATION = 'D_PLAN',),),
                    )

MODTHER = AFFE_MODELE(
                 MAILLAGE = MAIL,
                 AFFE     = (_F(GROUP_MA = ('BETON1','FIXE1','INTRA1','EXTRA1',
                                            'BETON2','FIXE2','INTRA2','EXTRA2',
                                            'BFISH1','BFISB1','BFISH2','BFISB2',),
                              PHENOMENE = 'THERMIQUE',
                              MODELISATION = 'PLAN_DIAG',),),
                    )

BETON = DEFI_MATERIAU(
                  ELAS = _F(E      = 35000.0E+6,
                            NU     = 0.25,
                            ALPHA  = 1.0E-5,),
                  THER = _F(LAMBDA = 2.3,
                            RHO_CP = 2500000.0,),
                    )

CHMAT = AFFE_MATERIAU(
                  MAILLAGE  = MAIL,
                  AFFE      = (_F(GROUP_MA = ('BETON1','FIXE1','INTRA1','EXTRA1',
                                              'BETON2','FIXE2','INTRA2','EXTRA2',
                                              'BFISH1','BFISB1','BFISH2','BFISB2',),
                                 MATER     = BETON,),),
                  AFFE_VARC = (_F(NOM_VARC = 'TEMP',
                                  VALE_REF = temp_ref),),
                    )

# BOUNDARY CONDITIONS
# ---------------------------------
# Mechanical B.C. :
CONDMECA = AFFE_CHAR_MECA(
                      MODELE   = MODMECA,
                      DDL_IMPO = (_F(GROUP_NO = 'FIXE1', DX = 0.0, DY = 0.0,),
                                  _F(GROUP_NO = 'FIXE2', DX = 0.0, DY = 0.0,),),
                        )

CONT  = DEFI_CONTACT(MODELE      = MODMECA,
                     FORMULATION = 'DISCRETE',
                     REAC_GEOM   = 'SANS',
                     ZONE        = (_F(GROUP_MA_MAIT = 'BFISH1',
                                       GROUP_MA_ESCL = 'BFISB1',
                                       SANS_GROUP_NO = ('E_HD1','E_BD1'),), # Pour tester la prise en compte de TESTXX
                                    _F(GROUP_MA_MAIT = 'BFISH2',
                                       GROUP_MA_ESCL = 'BFISB2',
                                       SANS_GROUP_NO = ('E_HD2','E_BD2'),), # Pour tester la prise en compte de TESTXX
                                   ),
                    )


# Thermal B.C. :
TEMP_INT = DEFI_CONSTANTE(VALE = temp_int,)
TEMP_EXT = DEFI_CONSTANTE(VALE = temp_ext,)
H_EXT    = DEFI_CONSTANTE(VALE = 4.0,)
H_INT    = DEFI_CONSTANTE(VALE = 8.0,)

CONDTHER = AFFE_CHAR_THER_F(
                    MODELE  = MODTHER,
                    ECHANGE = (
                        _F(GROUP_MA = 'INTRA1',
                           COEF_H   = H_INT,
                           TEMP_EXT = TEMP_INT,),
                        _F(GROUP_MA ='EXTRA1',
                           COEF_H   = H_EXT,
                           TEMP_EXT = TEMP_EXT,),
                        _F(GROUP_MA = 'INTRA2',
                           COEF_H   = H_INT,
                           TEMP_EXT = TEMP_INT,),
                        _F(GROUP_MA ='EXTRA2',
                           COEF_H   = H_EXT,
                           TEMP_EXT = TEMP_EXT,),),
                          )



# COMPUTATION
# ---------------------------------
L_INST = DEFI_LIST_REEL(
                  DEBUT      = 0.0,
                  INTERVALLE = (
                        _F(JUSQU_A = 500.,   NOMBRE = 20,),
                        _F(JUSQU_A = 10000., NOMBRE = 20,),
                              ),
                      )

RMECA = MACR_ECREVISSE(
                TABLE  = CO('TBL_ECRE'),
                TEMPER = CO('RTEMPER'),
                DEBIT  = CO('DEB_ECRE'),
                #
                CHAM_MATER  = CHMAT,
                MODELE_MECA = MODMECA,
                MODELE_THER = MODTHER,
                COMPORTEMENT   = _F(RELATION='ELAS',),
                EXCIT_MECA  = _F(CHARGE = CONDMECA),
                EXCIT_THER  = _F(CHARGE = CONDTHER),
                CONTACT     = CONT,
                LIST_INST   = L_INST,
                #
                FISSURE = (_F(
                      PREFIXE_FICHIER  = 'FISSURE1',
                      SECTION          = 'RECTANGLE',
                      GROUP_MA         = ('BFISH1','BFISB1',),
                      RUGOSITE         = 0.5E-06,
                      ZETA             = 0.0,
                      GROUP_NO_ORIG    = ('I_HD1','I_BD1',),
                      GROUP_NO_EXTR    = ('E_HD1','E_BD1',),
                      LISTE_VAL_BL     = (0.5,0.5),
                      OUVERT_REMANENTE = 30.0E-06,
                      TORTUOSITE       = 0.8,),
                              _F(
                      PREFIXE_FICHIER  = 'FISSURE2',
                      SECTION          = 'RECTANGLE',
                      GROUP_MA         = ('BFISH2','BFISB2',),
                      RUGOSITE         = 0.5E-06,
                      ZETA             = 0.0,
                      GROUP_NO_ORIG    = ('I_HD2','I_BD2',),
                      GROUP_NO_EXTR    = ('E_HD2','E_BD2',),
                      LISTE_VAL_BL     = (0.5,0.5),
                      OUVERT_REMANENTE = 30.0E-06,
                      TORTUOSITE       = 0.8,),
                          ),
                #
                ECOULEMENT = _F(
                        FLUIDE_ENTREE    = 6,
                        PRES_ENTREE      = pr_int,
                        PRES_SORTIE      = pr_atmos,
                        TEMP_ENTREE_FO   = TEMP_INT, ),
                #
                MODELE_ECRE = _F(
                        ECOULEMENT     = 'SATURATION',
                        FROTTEMENT     = 1,
                        TRANSFERT_CHAL = 1, ),
                #
                CONV_CRITERE = _F(
                        TEMP_REF = 0.5,
                        PRES_REF = 0.01*pr_atmos,
                        CRITERE  = 'EXPLICITE',),
                #
                CONVERGENCE_ECREVISSE = _F(
                          KGTEST         = 0.5,
                          ITER_GLOB_MAXI = 400, ),
                #
                # LOGICIEL    =  '/aster/outils/ecrevisse-3.2.1/ecrevisse_v3.2.1_aster4',
                VERSION     ='3.2.1',
                COURBES     = 'AUCUNE',
                ENTETE      = 'Castest ZZZZ218C',
                IMPRESSION  = 'NON',
                INFO        = 1,
                      )



# EXTRACTION OF RESULTS
# ---------------------------------
T_DEPL1 = POST_RELEVE_T(ACTION = _F(CRITERE   = 'RELATIF',
                                    NOM_CMP    = ('DX','DY',),
                                    GROUP_NO   = ('E_HD1','E_BD1',),
                                    INTITULE   = 'DEPLACEMENT',
                                    MOYE_NOEUD = 'OUI',
                                    NOM_CHAM   = 'DEPL',
                                    RESULTAT   = RMECA,
                                    OPERATION  = 'EXTRACTION',
                                    INST       = 50.,
                                    REPERE     = 'GLOBAL',),
                        INFO = 1,)

T_DEPL2 = POST_RELEVE_T(ACTION = _F(CRITERE   = 'RELATIF',
                                    NOM_CMP    = ('DX','DY',),
                                    GROUP_NO   = ('E_HD2','E_BD2',),
                                    INTITULE   = 'DEPLACEMENT',
                                    MOYE_NOEUD = 'OUI',
                                    NOM_CHAM   = 'DEPL',
                                    RESULTAT   = RMECA,
                                    OPERATION  = 'EXTRACTION',
                                    INST       = 50.,
                                    REPERE     = 'GLOBAL',),
                        INFO = 1,)

T_TEMP = POST_RELEVE_T(ACTION = _F(CRITERE    = 'RELATIF',
                                    NOM_CMP    = ('TEMP',),
                                    GROUP_NO   = ('I_HD1','I_HD2',),
                                    INTITULE   = 'TEMPERATURE',
                                    MOYE_NOEUD = 'OUI',
                                    NOM_CHAM   = 'TEMP',
                                    RESULTAT   = RTEMPER,
                                    OPERATION  = 'EXTRACTION',
                                    INST       = 10000.,
                                    REPERE     = 'GLOBAL',),
                        INFO = 1,)



# TEST OF RESULTS
# ---------------------------------
DEB_FIN = CALC_TABLE(TABLE  = DEB_ECRE,
                    ACTION = (_F(OPERATION = 'FILTRE',
                                 NOM_PARA  = 'NUME_ORDRE',
                                 CRIT_COMP = 'EQ',
                                 VALE_I    = 40,),
                     ),)

TBL_FIN = CALC_TABLE(TABLE  = TBL_ECRE,
                    ACTION = (_F(OPERATION = 'FILTRE',
                                 NOM_PARA  = 'NUME_ORDRE',
                                 CRIT_COMP = 'EQ',
                                 VALE_I    = 40,),
                     ),)

TBL_FIN1 = CALC_TABLE(TABLE  = TBL_FIN,
                    ACTION = (_F(OPERATION = 'FILTRE',
                                 NOM_PARA  = 'FISSURE',
                                 CRIT_COMP = 'EQ',
                                 VALE_K    = 'BFISH1-BFISB1',),
                     ),)

TBL_FIN2 = CALC_TABLE(TABLE  = TBL_FIN,
                    ACTION = (_F(OPERATION = 'FILTRE',
                                 NOM_PARA  = 'FISSURE',
                                 CRIT_COMP = 'EQ',
                                 VALE_K    = 'BFISH2-BFISB2',),
                     ),)


dx2a = T_DEPL2['DX',1]
dx2b = T_DEPL2['DX',2]
dy2a = T_DEPL2['DY',1]
dy2b = T_DEPL2['DY',2]

TEST_TABLE(
           VALE_CALC=6.62232935794E-07,
           TOLE_MACHINE = 1.0000000000000001E-05,
           NOM_PARA     = 'DX',
           TABLE        = T_DEPL1,
           FILTRE       = _F(NOM_PARA = 'ABSC_CURV',
                             VALE     = 0.0,),
           )

TEST_TABLE(
           VALE_CALC=-1.38749110626E-06,
           TOLE_MACHINE = 1.0000000000000001E-05,
           NOM_PARA     = 'DX',
           TABLE        = T_DEPL1,
           FILTRE       = _F(NOM_PARA = 'ABSC_CURV',
                             VALE     = 1.3999999999999999E-4,),
           )

TEST_TABLE(
           VALE_CALC=1.98447709114E-06,
           TOLE_MACHINE = 1.0000000000000001E-05,
           NOM_PARA     = 'DY',
           TABLE        = T_DEPL1,
           FILTRE       = _F(NOM_PARA = 'ABSC_CURV',
                             VALE     = 0.0,),
           )

TEST_TABLE(
           VALE_CALC=-1.56574909119E-06,
           TOLE_MACHINE = 1.0000000000000001E-05,
           NOM_PARA     = 'DY',
           TABLE        = T_DEPL1,
           FILTRE       = _F(NOM_PARA = 'ABSC_CURV',
                             VALE     = 1.3999999999999999E-4,),
           )

tempMat2 = T_TEMP['TEMP',2]
TEST_TABLE(
           VALE_CALC=111.487273613,
           TOLE_MACHINE = 1.E-4,
           NOM_PARA     = 'TEMP',
           TABLE        = T_TEMP,
           FILTRE       = _F(NOM_PARA = 'NOEUD',
                             VALE_K   = 'N4',),
           )

debtot2 = DEB_FIN['DEBTOT',2]
TEST_TABLE(
           VALE_CALC=0.0009928399,
           TOLE_MACHINE = 1.E-3,
           NOM_PARA     = 'DEBTOT',
           TABLE        = DEB_FIN,
           FILTRE       = _F(NOM_PARA = 'FISSURE',
                             VALE_K   = 'BFISH1-BFISB1',),
           )

coefConv2 = TBL_FIN2['COEF_CONV',11]
TEST_TABLE(
           VALE_CALC=214.6674,
           TOLE_MACHINE = 1.E-4,
           NOM_PARA     = 'COEF_CONV',
           TABLE        = TBL_FIN1,
           FILTRE       = _F(NOM_PARA = 'COTES',
                             VALE     = 0.034676100000000001,),
           )

press2 = TBL_FIN2['PRESSION',11]
TEST_TABLE(
           VALE_CALC=903494.8,
           TOLE_MACHINE = 1.E-4,
           NOM_PARA     = 'PRESSION',
           TABLE        = TBL_FIN1,
           FILTRE       = _F(NOM_PARA = 'COTES',
                             VALE     = 0.034676100000000001,),
           )

tempFl2 = TBL_FIN2['TEMP',11]
TEST_TABLE(
           VALE_CALC=89.24661,
           TOLE_MACHINE = 1.E-4,
           NOM_PARA     = 'TEMP',
           TABLE        = TBL_FIN1,
           FILTRE       = _F(NOM_PARA='COTES',
                             VALE=0.034676100000000001,),
           )

flux2 = TBL_FIN2['FLUX',11]
TEST_TABLE(
           VALE_CALC=396.1546,
           TOLE_MACHINE = 1.E-3,
           NOM_PARA     = 'FLUX',
           TABLE        = TBL_FIN1,
           FILTRE       = _F(NOM_PARA = 'COTES',
                             VALE     = 0.034676100000000001,),
           )


### PRINT OF RESULTS
### ---------------------------------
##IMPR_TABLE(TABLE = TBL_ECRE)
##IMPR_TABLE(TABLE = DEB_ECRE)
##IMPR_TABLE(TABLE = T_TEMP)
##IMPR_TABLE(TABLE = T_DEPL1)
##IMPR_TABLE(TABLE = T_DEPL2)

##IMPR_RESU(FORMAT='MED',
          ##RESU  = (_F( RESULTAT = RMECA,),
                   ##_F( RESULTAT = RTEMPER,),),)


FIN()
