# MODIF  DATE 19/10/2010   AUTEUR DESOZA T.DESOZA 
# TITRE VALEUR DE REFERENCE POUR LES ELEMENTS BARRES
# zzzz234b.para = tps_job 60 mem_job 64Mo ncpus 1 liste_test R
#            CONFIGURATION MANAGEMENT OF EDF VERSION
# ======================================================================
# COPYRIGHT (C) 1991 - 2008  EDF R&D                  WWW.CODE-ASTER.ORG
# THIS PROGRAM IS FREE SOFTWARE; YOU CAN REDISTRIBUTE IT AND/OR MODIFY  
# IT UNDER THE TERMS OF THE GNU GENERAL PUBLIC LICENSE AS PUBLISHED BY  
# THE FREE SOFTWARE FOUNDATION; EITHER VERSION 2 OF THE LICENSE, OR     
# (AT YOUR OPTION) ANY LATER VERSION.                                                    
#                                                                       
# THIS PROGRAM IS DISTRIBUTED IN THE HOPE THAT IT WILL BE USEFUL, BUT   
# WITHOUT ANY WARRANTY; WITHOUT EVEN THE IMPLIED WARRANTY OF            
# MERCHANTABILITY OR FITNESS FOR A PARTICULAR PURPOSE. SEE THE GNU      
# GENERAL PUBLIC LICENSE FOR MORE DETAILS.                              
#                                                                       
# YOU SHOULD HAVE RECEIVED A COPY OF THE GNU GENERAL PUBLIC LICENSE     
# ALONG WITH THIS PROGRAM; IF NOT, WRITE TO EDF R&D CODE_ASTER,         
#    1 AVENUE DU GENERAL DE GAULLE, 92141 CLAMART CEDEX, FRANCE.        
# ======================================================================

DEBUT(CODE=_F(NOM='ZZZZ234B',NIV_PUB_WEB='INTERNET'),
      DEBUG=_F(SDVERI='OUI'))

# Fonction de calcul de l'erreur
CoefRef = 1.0E-05


MA = LIRE_MAILLAGE(INFO=2);

MATE = DEFI_MATERIAU(ELAS=_F(E=2.1E11,NU=0.3),)

CHMAT = AFFE_MATERIAU(MAILLAGE=MA,
                      AFFE = _F(TOUT='OUI',MATER=MATE,),)


LIS_INST =DEFI_LIST_REEL(DEBUT=0.0,INTERVALLE=(_F(JUSQU_A=1.0,NOMBRE=1,),),)

#-------------------------------------------------------------------------------------
# --> BARRE 3D
# -------------

MO_BAR = AFFE_MODELE(MAILLAGE=MA,
                     AFFE=_F(TOUT='OUI',PHENOMENE='MECANIQUE',MODELISATION='BARRE'),)

CA_BAR = AFFE_CARA_ELEM(  BARRE=_F( GROUP_MA='TOUT',
                                  SECTION='CERCLE',CARA= 'R',VALE=0.02,),
                                  MODELE=MO_BAR)

CL_BAR = AFFE_CHAR_MECA(MODELE=MO_BAR,
                   DDL_IMPO=(
                       _F(GROUP_NO='A',DX=0., DY=0., DZ=0.,),
                       _F(GROUP_NO='B',       DY=0., DZ=0.,),
))

CH_BAR = AFFE_CHAR_MECA(MODELE=MO_BAR,
                        FORCE_NODALE=_F(GROUP_NO='B',
                                        FX=-1000.,),)

RE_BAR=STAT_NON_LINE(MODELE     = MO_BAR,
                     CHAM_MATER = CHMAT,
                     CARA_ELEM  = CA_BAR,
                     EXCIT      = (_F(CHARGE = CL_BAR),
                                   _F(CHARGE = CH_BAR),),
     COMP_INCR  =  _F(RELATION   = 'ELAS',
                                     GROUP_MA    = 'TOUT',),
                     INCREMENT = _F(LIST_INST = LIS_INST,),
                     CONVERGENCE = _F(RESI_REFE_RELA=1.0,FORC_REFE =(CoefRef,CoefRef),),
);

TB_BAR = RECU_TABLE(CO=RE_BAR,NOM_PARA=('ITER_GLOB'),)

IMPR_TABLE(TABLE=TB_BAR)
TEST_TABLE(TABLE=TB_BAR, NOM_PARA='ITER_GLOB', VALE_I=1, FILTRE=_F(NOM_PARA='NUME_ORDRE',VALE_I=1,),
           CRITERE = 'ABSOLU',        PRECISION = 0., REFERENCE='NON_REGRESSION',); 

TEST_RESU(RESU=(_F(RESULTAT   = RE_BAR,
                   INST       = 1.0,
                   NOM_CHAM   = 'DEPL',
                   GROUP_NO   = 'B',
                   NOM_CMP    = 'DX',
                   VALE       = -3.7894034069499E-06,
                   
                   REFERENCE  = 'NON_REGRESSION',
                   VERSION    = '10.2.20',
                   PRECISION  = 1E-8,
                   ),),
       )

FIN()
