
# ======================================================================
# COPYRIGHT (C) 1991 - 2016  EDF R&D                  WWW.CODE-ASTER.ORG
# THIS PROGRAM IS FREE SOFTWARE; YOU CAN REDISTRIBUTE IT AND/OR MODIFY
# IT UNDER THE TERMS OF THE GNU GENERAL PUBLIC LICENSE AS PUBLISHED BY
# THE FREE SOFTWARE FOUNDATION; EITHER VERSION 2 OF THE LICENSE, OR
# (AT YOUR OPTION) ANY LATER VERSION.
#
# THIS PROGRAM IS DISTRIBUTED IN THE HOPE THAT IT WILL BE USEFUL, BUT
# WITHOUT ANY WARRANTY; WITHOUT EVEN THE IMPLIED WARRANTY OF
# MERCHANTABILITY OR FITNESS FOR A PARTICULAR PURPOSE. SEE THE GNU
# GENERAL PUBLIC LICENSE FOR MORE DETAILS.
#
# YOU SHOULD HAVE RECEIVED A COPY OF THE GNU GENERAL PUBLIC LICENSE
# ALONG WITH THIS PROGRAM; IF NOT, WRITE TO EDF R&D CODE_ASTER,
#    1 AVENUE DU GENERAL DE GAULLE, 92141 CLAMART CEDEX, FRANCE.
# ======================================================================

DEBUT(CODE=_F(NIV_PUB_WEB='INTERNET'), DEBUG=_F(SDVERI='OUI'))

PRE_GMSH();

#---------------------------------------------------------------------
# -- MAILLAGE LINEAIRE , MODELISATION D_PLAN
#---------------------------------------------------------------------

MA_INIT=LIRE_MAILLAGE()

MA=CREA_MAILLAGE(MAILLAGE=MA_INIT,LINE_QUAD=_F(TOUT='OUI'))

ACIER=DEFI_MATERIAU(   ELAS=_F( E = 1.E+11,
                             NU = 0.3 ,RHO=7800.,))

CHMAT=AFFE_MATERIAU(   MAILLAGE=MA,
                             AFFE=_F( TOUT = 'OUI', MATER = ACIER),)

MO=AFFE_MODELE(    MAILLAGE=MA,
                         AFFE=_F(  TOUT='OUI',
                                   PHENOMENE = 'MECANIQUE',
                                   MODELISATION = 'D_PLAN'),
               )
#
#--CREATION DE LA SD RESULTAT DE TYPE EVOL_NOLI
#
VITE_1s=CREA_CHAMP( OPERATION='AFFE', TYPE_CHAM='NOEU_DEPL_R',
                    MAILLAGE=MA,
                    AFFE=_F(  TOUT = 'OUI',
                    NOM_CMP = ('DX','DY'),
                    VALE = (  1.5,    0.,))
                      )
VITE_2s=CREA_CHAMP( OPERATION='AFFE', TYPE_CHAM='NOEU_DEPL_R',
                    MAILLAGE=MA,
                    AFFE=_F(  TOUT = 'OUI',
                    NOM_CMP = ('DX','DY'),
                    VALE = (  1.5,    2.5,))
                      )
VITE=CREA_RESU(OPERATION='AFFE',
                    TYPE_RESU='EVOL_NOLI',
                    NOM_CHAM='VITE',
                    AFFE=_F(CHAM_GD=VITE_1s,INST=1.0,),);
VITE=CREA_RESU(reuse=VITE,OPERATION='AFFE',
                    TYPE_RESU='EVOL_NOLI',
                    NOM_CHAM='VITE',
                    AFFE=_F(CHAM_GD=VITE_2s,INST=2.0,),);

# CALCUL DE LA MASSE  ---------------------------------
#
MASSE=POST_ELEM(  MODELE=MO,
                        CHAM_MATER=CHMAT,
                        MASS_INER=(_F(  GROUP_MA = ( 'GM100','GM200', ),),
                                    _F(TOUT = 'OUI') ))

IMPR_TABLE(TABLE=MASSE)

TEST_TABLE(REFERENCE='ANALYTIQUE',
           PRECISION=1.E-4,
           VALE_CALC= 2.04750000E+03,
           VALE_REFE=2047.5,
           NOM_PARA='MASSE',
           TABLE=MASSE,
           FILTRE=_F(NOM_PARA='LIEU',
                     VALE_K='MA',),
           )

#
# CALCUL DE L'ENERGIE CINETIQUE -----------------------
#
ENER=POST_ELEM(   MODELE=MO,   CHAM_MATER=CHMAT,
                 RESULTAT=VITE,ENER_CIN=(_F(
                                           GROUP_MA=('GM100','GM200'),),
                                         _F(TOUT='OUI') ))
IMPR_TABLE(TABLE=ENER)
TEST_TABLE(REFERENCE='ANALYTIQUE',
           PRECISION=1.E-4,
           VALE_CALC= 2.30343750E+03,
           VALE_REFE=2303.4400000000001,
           NOM_PARA='TOTALE',
           TABLE=ENER,
           FILTRE=(_F(NOM_PARA='LIEU',
                      VALE_K='MA',),
                   _F(NOM_PARA='NUME_ORDRE',
                      VALE_I=1,),
                   ),
           )

TEST_TABLE(REFERENCE='ANALYTIQUE',
           PRECISION=1.E-4,
           VALE_CALC=921.375000000,
           VALE_REFE=921.375,
           NOM_PARA='TOTALE',
           TABLE=ENER,
           FILTRE=(_F(NOM_PARA='LIEU',
                      VALE_K='GM100',),
                   _F(NOM_PARA='NUME_ORDRE',
                      VALE_I=1,),
                   ),
           )

TEST_TABLE(REFERENCE='ANALYTIQUE',
           PRECISION=1.E-4,
           VALE_CALC= 1.38206250E+03,
           VALE_REFE=1382.0599999999999,
           NOM_PARA='TOTALE',
           TABLE=ENER,
           FILTRE=(_F(NOM_PARA='LIEU',
                      VALE_K='GM200',),
                   _F(NOM_PARA='NUME_ORDRE',
                      VALE_I=1,),
                   ),
           )

TEST_TABLE(REFERENCE='ANALYTIQUE',
           PRECISION=1.E-4,
           VALE_CALC= 8.70187500E+03,
           VALE_REFE=8701.8700000000008,
           NOM_PARA='TOTALE',
           TABLE=ENER,
           FILTRE=(_F(NOM_PARA='LIEU',
                      VALE_K='MA',),
                   _F(NOM_PARA='NUME_ORDRE',
                      VALE_I=2,),
                   ),
           )

TEST_TABLE(REFERENCE='ANALYTIQUE',
           PRECISION=1.E-4,
           VALE_CALC= 3.48075000E+03,
           VALE_REFE=3480.75,
           NOM_PARA='TOTALE',
           TABLE=ENER,
           FILTRE=(_F(NOM_PARA='LIEU',
                      VALE_K='GM100',),
                   _F(NOM_PARA='NUME_ORDRE',
                      VALE_I=2,),
                   ),
           )

TEST_TABLE(REFERENCE='ANALYTIQUE',
           PRECISION=1.E-4,
           VALE_CALC= 5.22112500E+03,
           VALE_REFE=5221.125,
           NOM_PARA='TOTALE',
           TABLE=ENER,
           FILTRE=(_F(NOM_PARA='LIEU',
                      VALE_K='GM200',),
                   _F(NOM_PARA='NUME_ORDRE',
                      VALE_I=2,),
                   ),
           )

FIN( )
#
