
# MODIF  DATE 28/03/2007   AUTEUR PELLET J.PELLET 
# RESPONSABLE F6BHHBO P.DEBONNIERES
# TITRE VALIDATION DE NON REGRESSION DU CHAINAGE 2D CYRANO3-CODE_ASTER
#            CONFIGURATION MANAGEMENT OF EDF VERSION
# ======================================================================
# COPYRIGHT (C) 1991 - 2001  EDF R&D                  WWW.CODE-ASTER.ORG
# THIS PROGRAM IS FREE SOFTWARE; YOU CAN REDISTRIBUTE IT AND/OR MODIFY
# IT UNDER THE TERMS OF THE GNU GENERAL PUBLIC LICENSE AS PUBLISHED BY
# THE FREE SOFTWARE FOUNDATION; EITHER VERSION 2 OF THE LICENSE, OR
# (AT YOUR OPTION) ANY LATER VERSION.
#
# THIS PROGRAM IS DISTRIBUTED IN THE HOPE THAT IT WILL BE USEFUL, BUT
# WITHOUT ANY WARRANTY; WITHOUT EVEN THE IMPLIED WARRANTY OF
# MERCHANTABILITY OR FITNESS FOR A PARTICULAR PURPOSE. SEE THE GNU
# GENERAL PUBLIC LICENSE FOR MORE DETAILS.
#
# YOU SHOULD HAVE RECEIVED A COPY OF THE GNU GENERAL PUBLIC LICENSE
# ALONG WITH THIS PROGRAM; IF NOT, WRITE TO EDF R&D CODE_ASTER,
#    1 AVENUE DU GENERAL DE GAULLE, 92141 CLAMART CEDEX, FRANCE.
# ======================================================================
#********************************************************************
# - CALCUL THERMOMECANIQUE 2D AXISYMETRIQUE
# - COMPATIBLE CYRANO3 VERSION 2.6
# - COMPARAISON AVEC RESULTATS CAS-TEST TEST1C3 DE CYRANO3 REPRIS
#   A L'INSTANT 101 SUR LA TRANCHE NUMERO 3.
#********************************************************************

DEBUT(CODE=_F(NOM='ZZZZ113B',
              NIV_PUB_WEB='INTRANET',),);
#
# --- CREATION DU CONCEPT MAILLAGE ASTER
#     ----------------------------------

MA=LIRE_MAILLAGE();
#
# --- CREATION DE GROUPES DE NOEUDS A PARTIR
# --- DES GROUPES DE MAILLES GIBI
#     --------------------------------------

MA=DEFI_GROUP(reuse =MA,
              MAILLAGE=MA,
              CREA_GROUP_NO=_F(TOUT_GROUP_MA='OUI',),);
#
# --- CHOIX DU MODELE : 2-D AXISYMETRIQUE
#     -----------------------------------

MO=AFFE_MODELE(MAILLAGE=MA,
               AFFE=_F(TOUT='OUI',
                       PHENOMENE='MECANIQUE',
                       MODELISATION='AXIS',),);
#
# ---DEFINITION DE LA LISTE D'INSTANTS
# ---LE PREMIER EST L'INSTANT INITIAL (DEJA CALCULE)
#    ------------------------------------------------

LINST=DEFI_LIST_REEL(VALE=(25.0452800000,25.0564000000,),);
#
# --- LECTURE DU DATASET IDEAS *.UNV1
# --- (CONTRAINTES,VARIABLES INTERNES) INSTANT INTIAL
#    ------------------------------------------------

INIT=LIRE_RESU(TYPE_RESU='EVOL_NOLI',
               FORMAT='IDEAS',
               MODELE=MO,
               NB_VARI=2,
               UNITE=50,
               NOM_CHAM=('VARI_ELNO','SIEF_ELNO',),
               INST=25.045280000000,);
#
# --- EXTRACTION CHAMP DE CONTRAINTES ETAT INITIAL
#     --------------------------------------------

CHSIG0=CREA_CHAMP(TYPE_CHAM='ELNO_SIEF_R',
                  OPERATION='EXTR',
                  RESULTAT=INIT,
                  NOM_CHAM='SIEF_ELNO',
                  NUME_ORDRE=1,);
#
# --- EXTRACTION CHAMP DE VAR.INTERNES ETAT INITIAL
#     ---------------------------------------------

CHVAR0=CREA_CHAMP(TYPE_CHAM='ELNO_VARI_R',
                  OPERATION='EXTR',
                  RESULTAT=INIT,
                  NOM_CHAM='VARI_ELNO',
                  NUME_ORDRE=1,);
#
# --- LECTURE DU DATASET IDEAS *.UNV2
# --- DEFORMATIONS ANELASTIQUES A CHAQUE INSTANT
#    ---------------------------------------------------

ANEL=LIRE_RESU(TYPE_RESU='EVOL_NOLI',
               FORMAT='IDEAS',
               MODELE=MO,
               UNITE=51,
               NOM_CHAM='EPSA_ELNO',
               LIST_INST=LINST,
               PRECISION=0.001,
               CRITERE='ABSOLU',);
#
# --- FONCTION DE FLUX NEUTRONIQUE : PARAMETRE
# --- POUR LA LOI DE VISCOPLASTICITE GAINE
#     -----------------------------------------

FLUX=DEFI_FONCTION(NOM_PARA='INST',VALE=(25.0452800000,9.348739619999344E+13,
                         25.0564000000,9.448726139999328E+13,
                         ),);
#
# --- MODULE D'YOUNG POUR LA PASTILLE : POUR CHAQUE
# --- PAS DE TEMPS IDT ON DEFINIT UNE FONCTION
# --- YP(IDT) DEPENDANT DE LA TEMPERATURE T
#     ---------------------------------------------

YP01=DEFI_FONCTION(NOM_PARA='TEMP',VALE=(462.87225357687,179397.13678432,
                         501.16326708612,178371.86608571,
                         501.16526708612,179127.47538985,
                         540.38375760566,178072.92208322,
                         540.38575760566,178707.32848069,
                         580.60117706935,177622.11576205,
                         580.60317706935,178220.83817798,
                         621.87589209747,177103.33984011,
                         621.87789209747,177669.21977625,
                         664.25752175233,176518.08392234,
                         664.25952175233,177053.22465127,
                         707.79769489033,175867.03427621,
                         707.79969489032,176373.34895825,
                         752.56731734782,175150.15062712,
                         752.56931734782,175629.37938615,
                         798.66002928457,174366.58380610,
                         798.66202928457,174820.42740358,
                         846.31738280651,173511.36488710,
                         846.31938280651,173941.42666419,
                         910.98827432722,172160.60943817,
                         ),);

YP02=DEFI_FONCTION(NOM_PARA='TEMP',VALE=(464.36733226877,179245.36024527,
                         503.14671315839,178207.66006296,
                         503.14871315839,178977.12193368,
                         542.87415253231,177909.51591432,
                         542.87615253231,178555.09612719,
                         583.61521469916,177456.27618013,
                         583.61721469916,178065.12456760,
                         625.43153964123,176933.43260001,
                         625.43353964123,177508.47206729,
                         668.37746054910,176342.43017562,
                         668.37946054910,176885.81051090,
                         712.51024450536,175683.84941866,
                         712.51224450536,176197.51996815,
                         757.90553087907,174957.55767027,
                         757.90753087907,175443.29258314,
                         804.66158850010,174162.61337290,
                         804.66358850010,174622.17343700,
                         853.02277253068,173294.03113544,
                         853.02477253068,173729.11420954,
                         918.67292751162,171921.61836101,
                         ),);
#
# --- GENERATION DE LA NAPPE MATERIAU FONCTION
# --- DU TEMPS ET DE LA TEMPERATURE
#     ----------------------------------------

YP=DEFI_NAPPE(NOM_PARA='INST',
              PARA=(25.0452800000,25.0564000000,),
              FONCTION=(YP01,YP02,),);
#
# --- MODULE D'YOUNG POUR LA GAINE : POUR CHAQUE
# --- PAS DE TEMPS IDT ON DEFINIT UNE FONCTION
# --- YP(IDT) DEPENDANT DE LA TEMPERATURE T
#     -------------------------------------------

YG01=DEFI_FONCTION(NOM_PARA='TEMP',VALE=(339.01167196359,77417.323026112,
                         343.50891345252,77156.483019754,
                         343.51091345252,77156.367019754,
                         347.97651406997,76897.362183942,
                         347.97851406997,76897.246183942,
                         352.54174277840,76632.578918853,
                         352.54374277840,76632.462918853,
                         357.20909918245,76361.872247418,
                         357.21109918245,76361.756247418,
                         361.98454548393,76084.896361932,
                         ),);

YG02=DEFI_FONCTION(NOM_PARA='TEMP',VALE=(339.59144285875,77383.696314192,
                         344.12644371618,77120.666264462,
                         344.12844371618,77120.550264462,
                         348.64374696137,76858.662676240,
                         348.64574696137,76858.546676240,
                         353.25823408253,76591.022423214,
                         353.26023408252,76590.906423214,
                         357.97510974025,76317.443635065,
                         357.97710974025,76317.327635065,
                         362.80087445048,76037.549281872,
                         ),);
#
# --- GENERATION DE LA NAPPE MATERIAU FONCTION
# --- DU TEMPS ET DE LA TEMPERATURE
#     ----------------------------------------

YG=DEFI_NAPPE(NOM_PARA='INST',
              PARA=(25.0452800000,25.0564000000,),
              FONCTION=(YG01,YG02,),);
#
# --- COEFFICIENT DE POISSON POUR LA PASTILLE
#     ---------------------------------------

POISSONP=DEFI_CONSTANTE(VALE=0.31000000000000,);
#
# --- COEFFICIENT POISSON POUR LA GAINE : POUR CHAQUE
# --- PAS DE TEMPS IDT ON DEFINIT UNE FONCTION
# --- PG(IDT) DEPENDANT DE LA TEMPERATURE T
#     ---------------------------------------------

PG01=DEFI_FONCTION(NOM_PARA='TEMP',VALE=(339.01167196359,0.25528452933259,
                         343.50891345252,0.25471787690498,
                         343.51091345252,0.25471762490498,
                         347.97651406997,0.25415495922718,
                         347.97851406997,0.25415470722718,
                         352.54174277840,0.25357974040992,
                         352.54374277840,0.25357948840992,
                         357.20909918245,0.25299165350301,
                         357.21109918245,0.25299140150301,
                         361.98454548393,0.25238994726903,
                         ),);

PG02=DEFI_FONCTION(NOM_PARA='TEMP',VALE=(339.59144285875,0.25521147819980,
                         344.12644371618,0.25464006809176,
                         344.12844371618,0.25463981609176,
                         348.64374696137,0.25407088788287,
                         348.64574696137,0.25407063588287,
                         353.25823408253,0.25348946250560,
                         353.26023408252,0.25348921050560,
                         357.97510974025,0.25289513617273,
                         357.97710974025,0.25289488417273,
                         362.80087445048,0.25228708981924,
                         ),);
#
# --- GENERATION DE LA NAPPE MATERIAU FONCTION
# --- DU TEMPS ET DE LA TEMPERATURE
#     ----------------------------------------

PG=DEFI_NAPPE(NOM_PARA='INST',
              PARA=(25.0452800000,25.0564000000,),
              FONCTION=(PG01,PG02,),);
#
# --- COEFF.DILATATION PASTILLE : POUR CHAQUE
# --- PAS DE TEMPS IDT ON DEFINIT UNE FONCTION
# --- DP(IDT) DEPENDANT DE LA TEMPERATURE T
#     ----------------------------------------

DP=DEFI_FONCTION(NOM_PARA='TEMP',VALE=(462.87125357687,7.7652334121462E-06,
                       462.87325357687,7.7652408125422E-06,
                       501.16326708612,7.9045686842491E-06,
                       501.16526708612,7.9045758482521E-06,
                       540.38375760566,8.0431038808148E-06,
                       540.38575760566,8.0431108528884E-06,
                       580.60117706935,8.1816596400514E-06,
                       580.60317706935,8.1816664543033E-06,
                       621.87589209747,8.3208876543387E-06,
                       621.87789209747,8.3208943373976E-06,
                       664.25752175233,8.4613024304128E-06,
                       664.25952175233,8.4613090033947E-06,
                       707.79769489033,8.6033509840584E-06,
                       707.79969489032,8.6033574639116E-06,
                       752.56731734782,8.7474853328082E-06,
                       752.56931734782,8.7474917332561E-06,
                       798.66002928457,8.8941830943182E-06,
                       798.66202928457,8.8941894265626E-06,
                       846.31738280651,9.0443472154387E-06,
                       846.31938280651,9.0443534885524E-06,
                       910.98727432722,9.2460836833605E-06,
                       910.98927432722,9.2460898905914E-06,
                       ),PROL_GAUCHE='CONSTANT',);
#
# --- COEFF.DILATATION GAINE

DG=DEFI_FONCTION(NOM_PARA='TEMP',VALE=(339.01167196359,6.0210241005699E-06,
                       343.51091345252,6.0301922535591E-06,
                       347.97851406997,6.0390613445798E-06,
                       352.54374277840,6.0478920386167E-06,
                       357.21109918245,6.0566869354197E-06,
                       362.80087445048,6.066E-06,
                       ),PROL_GAUCHE='CONSTANT',);
#
# --- DEFORMATION MESUREE APRES UN TEST DE FLUAGE :
# --- PARAMETRE DE LA LOI VISCOPLASTICITE GAINE
#     ---------------------------------------------

EFAB=DEFI_CONSTANTE(VALE=0.60000000000000,);
#
# --- TEMPERATURE DU TEST DE FLUAGE :
# --- PARAMETRE DE LA LOI VISCOPLASTICITE GAINE
#     ---------------------------------------------

TFAB=DEFI_CONSTANTE(VALE=470.00000000000,);
#
# --- MATERIAU PASTILLE
#     -----------------

MATERP=DEFI_MATERIAU(ELAS_FO=_F(E=YP01,
                                NU=POISSONP,
                                TEMP_DEF_ALPHA=0.,
                                ALPHA=DP,),
                     LEMAITRE=_F(N=1.,
                                 UN_SUR_K=0.,
                                 UN_SUR_M=0.,),);
#
# --- MATERIAU GAINE
#     --------------

MATERG=DEFI_MATERIAU(ELAS_FO=_F(E=YG,
                                NU=PG,
                                TEMP_DEF_ALPHA=0.,
                                ALPHA=DG,),
                     ZIRC_CYRA2=_F(EPSI_FAB=EFAB,
                                   TEMP_RECUIT=TFAB,
                                   FLUX_PHI=FLUX,),);
#
# --- GENERATION DES CHAMPS AUX NOEUDS DE TEMPERATURE
# --- PROVENANT DE CYRANO3, AFFECTATION PAR GROUPE DE
# --- MAILLES VERTICALES BPM(I) I=1,NA+NGN+2. LES
# --- CHAMPS SONT INDICES SUR LE TEMPS TP(T).
#     -----------------------------------------------

TP01=CREA_CHAMP(TYPE_CHAM='NOEU_TEMP_R',
                OPERATION='AFFE',
                MAILLAGE=MA,
                AFFE=(
                _F(GROUP_NO='BPM01',
                   NOM_CMP='TEMP',
                   VALE=910.98827432722,),
                _F(GROUP_NO='BPM02',
                   NOM_CMP='TEMP',
                   VALE=846.31838280651,),
                _F(GROUP_NO='BPM03',
                   NOM_CMP='TEMP',
                   VALE=798.66102928457,),
                _F(GROUP_NO='BPM04',
                   NOM_CMP='TEMP',
                   VALE=752.56831734782,),
                _F(GROUP_NO='BPM05',
                   NOM_CMP='TEMP',
                   VALE=707.79869489033,),
                _F(GROUP_NO='BPM06',
                   NOM_CMP='TEMP',
                   VALE=664.25852175233,),
                _F(GROUP_NO='BPM07',
                   NOM_CMP='TEMP',
                   VALE=621.87689209747,),
                _F(GROUP_NO='BPM08',
                   NOM_CMP='TEMP',
                   VALE=580.60217706935,),
                _F(GROUP_NO='BPM09',
                   NOM_CMP='TEMP',
                   VALE=540.38475760566,),
                _F(GROUP_NO='BPM10',
                   NOM_CMP='TEMP',
                   VALE=501.16426708612,),
                _F(GROUP_NO='BPM11',
                   NOM_CMP='TEMP',
                   VALE=462.87225357687,),
                _F(GROUP_NO='BPM12',
                   NOM_CMP='TEMP',
                   VALE=361.98454548393,),
                _F(GROUP_NO='BPM13',
                   NOM_CMP='TEMP',
                   VALE=357.21009918245,),
                _F(GROUP_NO='BPM14',
                   NOM_CMP='TEMP',
                   VALE=352.54274277840,),
                _F(GROUP_NO='BPM15',
                   NOM_CMP='TEMP',
                   VALE=347.97751406997,),
                _F(GROUP_NO='BPM16',
                   NOM_CMP='TEMP',
                   VALE=343.50991345252,),
                _F(GROUP_NO='BPM17',
                   NOM_CMP='TEMP',
                   VALE=339.01167196359,),),);

TP02=CREA_CHAMP(TYPE_CHAM='NOEU_TEMP_R',
                OPERATION='AFFE',
                MAILLAGE=MA,
                AFFE=(
                _F(GROUP_NO='BPM01',
                   NOM_CMP='TEMP',
                   VALE=918.67292751162,),
                _F(GROUP_NO='BPM02',
                   NOM_CMP='TEMP',
                   VALE=853.02377253068,),
                _F(GROUP_NO='BPM03',
                   NOM_CMP='TEMP',
                   VALE=804.66258850010,),
                _F(GROUP_NO='BPM04',
                   NOM_CMP='TEMP',
                   VALE=757.90653087907,),
                _F(GROUP_NO='BPM05',
                   NOM_CMP='TEMP',
                   VALE=712.51124450536,),
                _F(GROUP_NO='BPM06',
                   NOM_CMP='TEMP',
                   VALE=668.37846054910,),
                _F(GROUP_NO='BPM07',
                   NOM_CMP='TEMP',
                   VALE=625.43253964123,),
                _F(GROUP_NO='BPM08',
                   NOM_CMP='TEMP',
                   VALE=583.61621469916,),
                _F(GROUP_NO='BPM09',
                   NOM_CMP='TEMP',
                   VALE=542.87515253231,),
                _F(GROUP_NO='BPM10',
                   NOM_CMP='TEMP',
                   VALE=503.14771315839,),
                _F(GROUP_NO='BPM11',
                   NOM_CMP='TEMP',
                   VALE=464.36733226877,),
                _F(GROUP_NO='BPM12',
                   NOM_CMP='TEMP',
                   VALE=362.80087445048,),
                _F(GROUP_NO='BPM13',
                   NOM_CMP='TEMP',
                   VALE=357.97610974025,),
                _F(GROUP_NO='BPM14',
                   NOM_CMP='TEMP',
                   VALE=353.25923408252,),
                _F(GROUP_NO='BPM15',
                   NOM_CMP='TEMP',
                   VALE=348.64474696137,),
                _F(GROUP_NO='BPM16',
                   NOM_CMP='TEMP',
                   VALE=344.12744371618,),
                _F(GROUP_NO='BPM17',
                   NOM_CMP='TEMP',
                   VALE=339.59144285875,),),);
#
# --- CREATION DE LA STRUCTURE EVOL_THER AVEC LES
# --- CHAMPS AUX NOEUDS PRECEDEMMENT DEFINIS
#     --------------------------------------------

EVOL=CREA_RESU(OPERATION='AFFE',
               TYPE_RESU='EVOL_THER',
               NOM_CHAM='TEMP',
               AFFE=(
               _F(CHAM_GD=TP01,
                  INST=25.0452800000,
                  PRECISION=1.E-6,),
               _F(CHAM_GD=TP02,
                  INST=25.0564000000,
                  PRECISION=1.E-6,),),);
#
# --- CREATION DU CHAMP MATERIAU PASTILLE-GAINE
#     -----------------------------------------

CHMAT=AFFE_MATERIAU(MAILLAGE=MA,
                    AFFE=(_F(GROUP_MA='PASTILLE',
                             MATER=MATERP,
                             TEMP_REF=0.,),
                          _F(GROUP_MA='GAINE',
                             MATER=MATERG,
                             ),),
                    AFFE_VARC=(_F(TOUT='OUI', EVOL=ANEL, NOM_VARC='EPSA',
                                 NOM_CHAM='EPSA_ELNO', PROL_DROITE='CONSTANT',),
                               _F(TOUT='OUI', EVOL=EVOL,  NOM_VARC='TEMP',  ),),);
#
# --- FONCTION PRESSION INTERNE PINT(T) EN MPA
#     ----------------------------------------

PINT=DEFI_FONCTION(NOM_PARA='INST',VALE=(25.0452800000,8.281498848869195,
                         25.0564000000,8.301904680271491,
                         ),);
#
# --- FONCTION PRESSION EXTERNE PEXT(T) EN MPA
#     ----------------------------------------

PEXT=DEFI_FONCTION(NOM_PARA='INST',VALE=(25.0452800000,15.500000000000000,
                         25.0564000000,15.500000000000000,
                         ),);
#
# --- CONTRAINTE AXIALE PASTILLE
#     --------------------------

FORCEP=DEFI_FONCTION(NOM_PARA='INST',VALE=(25.0452800000,-8.468295626405192,
                           25.0564000000,-8.488701457807489,
                           ),);
#
# --- CONTRAINTE AXIALE GAINE
#     -----------------------

FORCEG=DEFI_FONCTION(NOM_PARA='INST',VALE=(25.0452800000,-40.3961806808399,
                           25.0564000000,-40.3261351319128,
                           ),);
#
# --- CHARGEMENT MECANIQUE EN PRESSION
#     --------------------------------

CHMEF=AFFE_CHAR_MECA_F(MODELE=MO,
                       FORCE_CONTOUR=(_F(GROUP_MA='SEGS12',
                                         FY=FORCEG,),
                                      _F(GROUP_MA='SEGPLA',
                                         FY=FORCEP,),),
                       PRES_REP=(_F(GROUP_MA=('BPM11','BPD12',),
                                    PRES=PINT,),
                                 _F(GROUP_MA='BPM17',
                                    PRES=PEXT,),),);
#
# --- CONDITIONS AUX LIMITES, CONTACT UNILATERAL
# --- PASTILLE-GAINE, CHARGEMENT THERMIQUE.
#     ------------------------------------------

CHME=AFFE_CHAR_MECA(MODELE=MO,
                    DDL_IMPO=(_F(GROUP_NO=('SEGI10','SEGI16',),
                                 DY=0.,),
                              _F(GROUP_NO='BPD01',
                                 DX=0.,),),
                    CONTACT=_F(NORMALE='MAIT_ESCL',
                               GROUP_MA_MAIT='BPM11',
                               GROUP_MA_ESCL='BPD12',
                               REAC_GEOM='SANS',),);
#
#--- AFFECTATION CHAMP DE DEPLACEMENT ETAT INITIAL
#--- DX = DEPLACEMENT RADIAL CYRANO3
#--- DY = DEFORMATION AXIALE TOTALE CYRANO3 / 100
#---      * COORDONNEE AXIALE DU POINT CONSIDERE
#    --------------------------------------------

CHDEP0=CREA_CHAMP(TYPE_CHAM='NOEU_DEPL_R',
                  OPERATION='AFFE',
                  MAILLAGE=MA,
                  AFFE=(
                  _F(GROUP_NO='BPM01',
                     NOM_CMP='DX',
                     VALE=0.0000000000,),
                  _F(GROUP_NO='BPM02',
                     NOM_CMP='DX',
                     VALE=0.0092097177,),
                  _F(GROUP_NO='BPM03',
                     NOM_CMP='DX',
                     VALE=0.0126920506,),
                  _F(GROUP_NO='BPM04',
                     NOM_CMP='DX',
                     VALE=0.0151536174,),
                  _F(GROUP_NO='BPM05',
                     NOM_CMP='DX',
                     VALE=0.0170610307,),
                  _F(GROUP_NO='BPM06',
                     NOM_CMP='DX',
                     VALE=0.0186016553,),
                  _F(GROUP_NO='BPM07',
                     NOM_CMP='DX',
                     VALE=0.0198748204,),
                  _F(GROUP_NO='BPM08',
                     NOM_CMP='DX',
                     VALE=0.0209413988,),
                  _F(GROUP_NO='BPM09',
                     NOM_CMP='DX',
                     VALE=0.0218422353,),
                  _F(GROUP_NO='BPM10',
                     NOM_CMP='DX',
                     VALE=0.0226064627,),
                  _F(GROUP_NO='BPM11',
                     NOM_CMP='DX',
                     VALE=0.0232557961,),
                  _F(GROUP_NO='BPM12',
                     NOM_CMP='DX',
                     VALE=0.0047689004,),
                  _F(GROUP_NO='BPM13',
                     NOM_CMP='DX',
                     VALE=0.0050693164,),
                  _F(GROUP_NO='BPM14',
                     NOM_CMP='DX',
                     VALE=0.0053608878,),
                  _F(GROUP_NO='BPM15',
                     NOM_CMP='DX',
                     VALE=0.0056441598,),
                  _F(GROUP_NO='BPM16',
                     NOM_CMP='DX',
                     VALE=0.0059196251,),
                  _F(GROUP_NO='BPM17',
                     NOM_CMP='DX',
                     VALE=0.0061876715,),
                  _F(NOEUD='N1',
                     NOM_CMP='DY',
                     VALE=0.0085157209,),
                  _F(NOEUD='N2',
                     NOM_CMP='DY',
                     VALE=0.0086930346,),
                  _F(NOEUD='N3',
                     NOM_CMP='DY',
                     VALE=0.0088708085,),
                  _F(NOEUD='N4',
                     NOM_CMP='DY',
                     VALE=0.0090507655,),
                  _F(NOEUD='N5',
                     NOM_CMP='DY',
                     VALE=0.0094194625,),
                  _F(NOEUD='N6',
                     NOM_CMP='DY',
                     VALE=0.0092342244,),
                  _F(NOEUD='N7',
                     NOM_CMP='DY',
                     VALE=0.0076641489,),
                  _F(NOEUD='N8',
                     NOM_CMP='DY',
                     VALE=0.0078237312,),
                  _F(NOEUD='N9',
                     NOM_CMP='DY',
                     VALE=0.0079837278,),
                  _F(NOEUD='N10',
                     NOM_CMP='DY',
                     VALE=0.0081456891,),
                  _F(NOEUD='N11',
                     NOM_CMP='DY',
                     VALE=0.0084775164,),
                  _F(NOEUD='N12',
                     NOM_CMP='DY',
                     VALE=0.0083108021,),
                  _F(NOEUD='N13',
                     NOM_CMP='DY',
                     VALE=0.0068125768,),
                  _F(NOEUD='N14',
                     NOM_CMP='DY',
                     VALE=0.0069544278,),
                  _F(NOEUD='N15',
                     NOM_CMP='DY',
                     VALE=0.0070966469,),
                  _F(NOEUD='N16',
                     NOM_CMP='DY',
                     VALE=0.0072406125,),
                  _F(NOEUD='N17',
                     NOM_CMP='DY',
                     VALE=0.0075355701,),
                  _F(NOEUD='N18',
                     NOM_CMP='DY',
                     VALE=0.0073873796,),
                  _F(NOEUD='N19',
                     NOM_CMP='DY',
                     VALE=0.0059610047,),
                  _F(NOEUD='N20',
                     NOM_CMP='DY',
                     VALE=0.0060851243,),
                  _F(NOEUD='N21',
                     NOM_CMP='DY',
                     VALE=0.0062095661,),
                  _F(NOEUD='N22',
                     NOM_CMP='DY',
                     VALE=0.0063355359,),
                  _F(NOEUD='N23',
                     NOM_CMP='DY',
                     VALE=0.0065936238,),
                  _F(NOEUD='N24',
                     NOM_CMP='DY',
                     VALE=0.0064639572,),
                  _F(NOEUD='N25',
                     NOM_CMP='DY',
                     VALE=0.0051094326,),
                  _F(NOEUD='N26',
                     NOM_CMP='DY',
                     VALE=0.0052158208,),
                  _F(NOEUD='N27',
                     NOM_CMP='DY',
                     VALE=0.0053224852,),
                  _F(NOEUD='N28',
                     NOM_CMP='DY',
                     VALE=0.0054304594,),
                  _F(NOEUD='N29',
                     NOM_CMP='DY',
                     VALE=0.0056516776,),
                  _F(NOEUD='N30',
                     NOM_CMP='DY',
                     VALE=0.0055405347,),
                  _F(NOEUD='N31',
                     NOM_CMP='DY',
                     VALE=0.0042578605,),
                  _F(NOEUD='N32',
                     NOM_CMP='DY',
                     VALE=0.0043465173,),
                  _F(NOEUD='N33',
                     NOM_CMP='DY',
                     VALE=0.0044354043,),
                  _F(NOEUD='N34',
                     NOM_CMP='DY',
                     VALE=0.0045253828,),
                  _F(NOEUD='N35',
                     NOM_CMP='DY',
                     VALE=0.0047097313,),
                  _F(NOEUD='N36',
                     NOM_CMP='DY',
                     VALE=0.0046171123,),
                  _F(NOEUD='N37',
                     NOM_CMP='DY',
                     VALE=0.0034062884,),
                  _F(NOEUD='N38',
                     NOM_CMP='DY',
                     VALE=0.0025547163,),
                  _F(NOEUD='N39',
                     NOM_CMP='DY',
                     VALE=0.0017031442,),
                  _F(NOEUD='N40',
                     NOM_CMP='DY',
                     VALE=0.0008515721,),
                  _F(NOEUD='N41',
                     NOM_CMP='DY',
                     VALE=0.0000000000,),
                  _F(NOEUD='N42',
                     NOM_CMP='DY',
                     VALE=0.0034772139,),
                  _F(NOEUD='N43',
                     NOM_CMP='DY',
                     VALE=0.0035483235,),
                  _F(NOEUD='N44',
                     NOM_CMP='DY',
                     VALE=0.0036203063,),
                  _F(NOEUD='N45',
                     NOM_CMP='DY',
                     VALE=0.0037677850,),
                  _F(NOEUD='N46',
                     NOM_CMP='DY',
                     VALE=0.0036936898,),
                  _F(NOEUD='N47',
                     NOM_CMP='DY',
                     VALE=0.0026079104,),
                  _F(NOEUD='N48',
                     NOM_CMP='DY',
                     VALE=0.0017386069,),
                  _F(NOEUD='N49',
                     NOM_CMP='DY',
                     VALE=0.0008693035,),
                  _F(NOEUD='N50',
                     NOM_CMP='DY',
                     VALE=0.0000000000,),
                  _F(NOEUD='N51',
                     NOM_CMP='DY',
                     VALE=0.0026612426,),
                  _F(NOEUD='N52',
                     NOM_CMP='DY',
                     VALE=0.0027152297,),
                  _F(NOEUD='N53',
                     NOM_CMP='DY',
                     VALE=0.0028258388,),
                  _F(NOEUD='N54',
                     NOM_CMP='DY',
                     VALE=0.0027702674,),
                  _F(NOEUD='N55',
                     NOM_CMP='DY',
                     VALE=0.0017741617,),
                  _F(NOEUD='N56',
                     NOM_CMP='DY',
                     VALE=0.0008870809,),
                  _F(NOEUD='N57',
                     NOM_CMP='DY',
                     VALE=0.0000000000,),
                  _F(NOEUD='N58',
                     NOM_CMP='DY',
                     VALE=0.0018101531,),
                  _F(NOEUD='N59',
                     NOM_CMP='DY',
                     VALE=0.0018838925,),
                  _F(NOEUD='N60',
                     NOM_CMP='DY',
                     VALE=0.0018468449,),
                  _F(NOEUD='N61',
                     NOM_CMP='DY',
                     VALE=0.0009050766,),
                  _F(NOEUD='N62',
                     NOM_CMP='DY',
                     VALE=0.0000000000,),
                  _F(NOEUD='N63',
                     NOM_CMP='DY',
                     VALE=0.0009419463,),
                  _F(NOEUD='N64',
                     NOM_CMP='DY',
                     VALE=0.0009234225,),
                  _F(NOEUD='N65',
                     NOM_CMP='DY',
                     VALE=0.0000000000,),
                  _F(NOEUD='N66',
                     NOM_CMP='DY',
                     VALE=0.0000000000,),
                  _F(NOEUD='N67',
                     NOM_CMP='DY',
                     VALE=0.0196516896,),
                  _F(NOEUD='N68',
                     NOM_CMP='DY',
                     VALE=0.0176865209,),
                  _F(NOEUD='N69',
                     NOM_CMP='DY',
                     VALE=0.0157213519,),
                  _F(NOEUD='N70',
                     NOM_CMP='DY',
                     VALE=0.0137561829,),
                  _F(NOEUD='N71',
                     NOM_CMP='DY',
                     VALE=0.0117910139,),
                  _F(NOEUD='N72',
                     NOM_CMP='DY',
                     VALE=0.0098258449,),
                  _F(NOEUD='N73',
                     NOM_CMP='DY',
                     VALE=0.0078606759,),
                  _F(NOEUD='N74',
                     NOM_CMP='DY',
                     VALE=0.0058955070,),
                  _F(NOEUD='N75',
                     NOM_CMP='DY',
                     VALE=0.0039303380,),
                  _F(NOEUD='N76',
                     NOM_CMP='DY',
                     VALE=0.0019651690,),
                  _F(NOEUD='N77',
                     NOM_CMP='DY',
                     VALE=0.0000000000,),
                  _F(NOEUD='N78',
                     NOM_CMP='DY',
                     VALE=0.0228779720,),
                  _F(NOEUD='N79',
                     NOM_CMP='DY',
                     VALE=0.0205901751,),
                  _F(NOEUD='N80',
                     NOM_CMP='DY',
                     VALE=0.0183023779,),
                  _F(NOEUD='N81',
                     NOM_CMP='DY',
                     VALE=0.0160145806,),
                  _F(NOEUD='N82',
                     NOM_CMP='DY',
                     VALE=0.0137267834,),
                  _F(NOEUD='N83',
                     NOM_CMP='DY',
                     VALE=0.0114389862,),
                  _F(NOEUD='N84',
                     NOM_CMP='DY',
                     VALE=0.0091511889,),
                  _F(NOEUD='N85',
                     NOM_CMP='DY',
                     VALE=0.0068633917,),
                  _F(NOEUD='N86',
                     NOM_CMP='DY',
                     VALE=0.0045755945,),
                  _F(NOEUD='N87',
                     NOM_CMP='DY',
                     VALE=0.0022877972,),
                  _F(NOEUD='N88',
                     NOM_CMP='DY',
                     VALE=0.0000000000,),
                  _F(NOEUD='N89',
                     NOM_CMP='DY',
                     VALE=0.0262706080,),
                  _F(NOEUD='N90',
                     NOM_CMP='DY',
                     VALE=0.0236435476,),
                  _F(NOEUD='N91',
                     NOM_CMP='DY',
                     VALE=0.0210164867,),
                  _F(NOEUD='N92',
                     NOM_CMP='DY',
                     VALE=0.0183894259,),
                  _F(NOEUD='N93',
                     NOM_CMP='DY',
                     VALE=0.0157623651,),
                  _F(NOEUD='N94',
                     NOM_CMP='DY',
                     VALE=0.0131353042,),
                  _F(NOEUD='N95',
                     NOM_CMP='DY',
                     VALE=0.0105082434,),
                  _F(NOEUD='N96',
                     NOM_CMP='DY',
                     VALE=0.0078811825,),
                  _F(NOEUD='N97',
                     NOM_CMP='DY',
                     VALE=0.0052541217,),
                  _F(NOEUD='N98',
                     NOM_CMP='DY',
                     VALE=0.0026270608,),
                  _F(NOEUD='N99',
                     NOM_CMP='DY',
                     VALE=0.0000000000,),
                  _F(NOEUD='N100',
                     NOM_CMP='DY',
                     VALE=0.0298312905,),
                  _F(NOEUD='N101',
                     NOM_CMP='DY',
                     VALE=0.0268481618,),
                  _F(NOEUD='N102',
                     NOM_CMP='DY',
                     VALE=0.0238650327,),
                  _F(NOEUD='N103',
                     NOM_CMP='DY',
                     VALE=0.0208819037,),
                  _F(NOEUD='N104',
                     NOM_CMP='DY',
                     VALE=0.0178987746,),
                  _F(NOEUD='N105',
                     NOM_CMP='DY',
                     VALE=0.0149156455,),
                  _F(NOEUD='N106',
                     NOM_CMP='DY',
                     VALE=0.0119325164,),
                  _F(NOEUD='N107',
                     NOM_CMP='DY',
                     VALE=0.0089493873,),
                  _F(NOEUD='N108',
                     NOM_CMP='DY',
                     VALE=0.0059662582,),
                  _F(NOEUD='N109',
                     NOM_CMP='DY',
                     VALE=0.0029831291,),
                  _F(NOEUD='N110',
                     NOM_CMP='DY',
                     VALE=0.0000000000,),
                  _F(NOEUD='N111',
                     NOM_CMP='DY',
                     VALE=0.0335708923,),
                  _F(NOEUD='N112',
                     NOM_CMP='DY',
                     VALE=0.0374396336,),
                  _F(NOEUD='N113',
                     NOM_CMP='DY',
                     VALE=0.0411988177,),
                  _F(NOEUD='N114',
                     NOM_CMP='DY',
                     VALE=0.0450869059,),
                  _F(NOEUD='N115',
                     NOM_CMP='DY',
                     VALE=0.0490860488,),
                  _F(NOEUD='N116',
                     NOM_CMP='DY',
                     VALE=0.0609460159,),
                  _F(NOEUD='N117',
                     NOM_CMP='DY',
                     VALE=0.0530152243,),
                  _F(NOEUD='N118',
                     NOM_CMP='DY',
                     VALE=0.0302138035,),
                  _F(NOEUD='N119',
                     NOM_CMP='DY',
                     VALE=0.0268567142,),
                  _F(NOEUD='N120',
                     NOM_CMP='DY',
                     VALE=0.0234996249,),
                  _F(NOEUD='N121',
                     NOM_CMP='DY',
                     VALE=0.0201425357,),
                  _F(NOEUD='N122',
                     NOM_CMP='DY',
                     VALE=0.0167854464,),
                  _F(NOEUD='N123',
                     NOM_CMP='DY',
                     VALE=0.0134283571,),
                  _F(NOEUD='N124',
                     NOM_CMP='DY',
                     VALE=0.0100712678,),
                  _F(NOEUD='N125',
                     NOM_CMP='DY',
                     VALE=0.0067141786,),
                  _F(NOEUD='N126',
                     NOM_CMP='DY',
                     VALE=0.0033570893,),
                  _F(NOEUD='N127',
                     NOM_CMP='DY',
                     VALE=0.0000000000,),
                  _F(NOEUD='N128',
                     NOM_CMP='DY',
                     VALE=0.0336956708,),
                  _F(NOEUD='N129',
                     NOM_CMP='DY',
                     VALE=0.0370789364,),
                  _F(NOEUD='N130',
                     NOM_CMP='DY',
                     VALE=0.0405782159,),
                  _F(NOEUD='N131',
                     NOM_CMP='DY',
                     VALE=0.0441774445,),
                  _F(NOEUD='N132',
                     NOM_CMP='DY',
                     VALE=0.0548514151,),
                  _F(NOEUD='N133',
                     NOM_CMP='DY',
                     VALE=0.0477137026,),
                  _F(NOEUD='N134',
                     NOM_CMP='DY',
                     VALE=0.0299517073,),
                  _F(NOEUD='N135',
                     NOM_CMP='DY',
                     VALE=0.0262077439,),
                  _F(NOEUD='N136',
                     NOM_CMP='DY',
                     VALE=0.0224637805,),
                  _F(NOEUD='N137',
                     NOM_CMP='DY',
                     VALE=0.0187198171,),
                  _F(NOEUD='N138',
                     NOM_CMP='DY',
                     VALE=0.0149758537,),
                  _F(NOEUD='N139',
                     NOM_CMP='DY',
                     VALE=0.0112318903,),
                  _F(NOEUD='N140',
                     NOM_CMP='DY',
                     VALE=0.0074879268,),
                  _F(NOEUD='N141',
                     NOM_CMP='DY',
                     VALE=0.0037439634,),
                  _F(NOEUD='N142',
                     NOM_CMP='DY',
                     VALE=0.0000000000,),
                  _F(NOEUD='N143',
                     NOM_CMP='DY',
                     VALE=0.0329590546,),
                  _F(NOEUD='N144',
                     NOM_CMP='DY',
                     VALE=0.0360695253,),
                  _F(NOEUD='N145',
                     NOM_CMP='DY',
                     VALE=0.0392688396,),
                  _F(NOEUD='N146',
                     NOM_CMP='DY',
                     VALE=0.0487568134,),
                  _F(NOEUD='N147',
                     NOM_CMP='DY',
                     VALE=0.0424121801,),
                  _F(NOEUD='N148',
                     NOM_CMP='DY',
                     VALE=0.0288391728,),
                  _F(NOEUD='N149',
                     NOM_CMP='DY',
                     VALE=0.0247192910,),
                  _F(NOEUD='N150',
                     NOM_CMP='DY',
                     VALE=0.0205994091,),
                  _F(NOEUD='N151',
                     NOM_CMP='DY',
                     VALE=0.0164795273,),
                  _F(NOEUD='N152',
                     NOM_CMP='DY',
                     VALE=0.0123596455,),
                  _F(NOEUD='N153',
                     NOM_CMP='DY',
                     VALE=0.0082397637,),
                  _F(NOEUD='N154',
                     NOM_CMP='DY',
                     VALE=0.0041198818,),
                  _F(NOEUD='N155',
                     NOM_CMP='DY',
                     VALE=0.0000000000,),
                  _F(NOEUD='N156',
                     NOM_CMP='DY',
                     VALE=0.0000000000,),
                  _F(NOEUD='N157',
                     NOM_CMP='DY',
                     VALE=0.0000000000,),
                  _F(NOEUD='N158',
                     NOM_CMP='DY',
                     VALE=0.0000000000,),
                  _F(NOEUD='N159',
                     NOM_CMP='DY',
                     VALE=0.0000000000,),
                  _F(NOEUD='N160',
                     NOM_CMP='DY',
                     VALE=0.0315608346,),
                  _F(NOEUD='N161',
                     NOM_CMP='DY',
                     VALE=0.0343602346,),
                  _F(NOEUD='N162',
                     NOM_CMP='DY',
                     VALE=0.0426622117,),
                  _F(NOEUD='N163',
                     NOM_CMP='DY',
                     VALE=0.0371106576,),
                  _F(NOEUD='N164',
                     NOM_CMP='DY',
                     VALE=0.0270521440,),
                  _F(NOEUD='N165',
                     NOM_CMP='DY',
                     VALE=0.0225434533,),
                  _F(NOEUD='N166',
                     NOM_CMP='DY',
                     VALE=0.0180347626,),
                  _F(NOEUD='N167',
                     NOM_CMP='DY',
                     VALE=0.0135260720,),
                  _F(NOEUD='N168',
                     NOM_CMP='DY',
                     VALE=0.0090173813,),
                  _F(NOEUD='N169',
                     NOM_CMP='DY',
                     VALE=0.0045086907,),
                  _F(NOEUD='N170',
                     NOM_CMP='DY',
                     VALE=0.0049086049,),
                  _F(NOEUD='N171',
                     NOM_CMP='DY',
                     VALE=0.0053015225,),
                  _F(NOEUD='N172',
                     NOM_CMP='DY',
                     VALE=0.0060946017,),
                  _F(NOEUD='N173',
                     NOM_CMP='DY',
                     VALE=0.0294516297,),
                  _F(NOEUD='N174',
                     NOM_CMP='DY',
                     VALE=0.0365676101,),
                  _F(NOEUD='N175',
                     NOM_CMP='DY',
                     VALE=0.0318091350,),
                  _F(NOEUD='N176',
                     NOM_CMP='DY',
                     VALE=0.0245430247,),
                  _F(NOEUD='N177',
                     NOM_CMP='DY',
                     VALE=0.0196344198,),
                  _F(NOEUD='N178',
                     NOM_CMP='DY',
                     VALE=0.0147258148,),
                  _F(NOEUD='N179',
                     NOM_CMP='DY',
                     VALE=0.0098172099,),
                  _F(NOEUD='N180',
                     NOM_CMP='DY',
                     VALE=0.0106030450,),
                  _F(NOEUD='N181',
                     NOM_CMP='DY',
                     VALE=0.0121892034,),
                  _F(NOEUD='N182',
                     NOM_CMP='DY',
                     VALE=0.0304730084,),
                  _F(NOEUD='N183',
                     NOM_CMP='DY',
                     VALE=0.0265076125,),
                  _F(NOEUD='N184',
                     NOM_CMP='DY',
                     VALE=0.0212060900,),
                  _F(NOEUD='N185',
                     NOM_CMP='DY',
                     VALE=0.0159045675,),
                  _F(NOEUD='N186',
                     NOM_CMP='DY',
                     VALE=0.0182838050,),
                  _F(NOEUD='N187',
                     NOM_CMP='DY',
                     VALE=0.0243784067,),),);
#
# --- OPERATEUR GLOBAL DE RESOLUTION NON LINEAIRE :
# --- LE CALCUL EST ELASTIQUE DANS LA PASTILLE (PORO_
# --- CYRA2) ET VISCOPLASTIQUE DANS LA GAINE (ZIRC_
# --- CYRA2)
#     -----------------------------------------------

MDEP=STAT_NON_LINE(MODELE=MO,
                   CHAM_MATER=CHMAT,
                   EXCIT=(_F(CHARGE=CHME,),
                          _F(CHARGE=CHMEF,),),
                   COMP_INCR=(_F(RELATION='LEMAITRE',
                                 GROUP_MA='PASTILLE',
                                 ITER_INTE_MAXI=1000,
                                 PARM_THETA=0.5,),
                              _F(RELATION='ZIRC_CYRA2',
                                 GROUP_MA='GAINE',
                                 ITER_INTE_MAXI=1000,
                                 PARM_THETA=0.5,),),
                   ETAT_INIT=_F(DEPL=CHDEP0,
                                SIGM=CHSIG0,
                                VARI=CHVAR0,),
                   INCREMENT=_F(LIST_INST=LINST,),
                   NEWTON=_F(MATRICE='TANGENTE',
                             REAC_ITER=1,),
                   CONVERGENCE=_F(RESI_GLOB_MAXI=1.E-4,
                                  ITER_GLOB_MAXI=10,),
                   SOLVEUR=_F(SYME='OUI',),
                   INFO=1,);

MDEP=CALC_ELEM(reuse =MDEP,
               RESULTAT=MDEP,
               OPTION=('SIEF_ELNO_ELGA','VARI_ELNO_ELGA',),);
#
# --- CALCUL DES DEFORMATIONS AUX NOEUDS
#     ----------------------------------

MDEP=CALC_ELEM(reuse =MDEP,
               RESULTAT=MDEP,
               NUME_ORDRE=1,
               OPTION=('EPSI_ELNO_DEPL','EQUI_ELNO_SIGM',),);
#
# --- EXTRACTION EN MILIEU DE PASTILLE
#     --------------------------------

MILSUP=POST_RELEVE_T(ACTION=(_F(OPERATION='EXTRACTION',
                                INTITULE='MILPASDE',
                                RESULTAT=MDEP,
                                NOM_CHAM='DEPL',
                                NUME_ORDRE=1,
                                GROUP_NO='SEGI10',
                                NOM_CMP=('DX','DY',),),
                             _F(OPERATION='EXTRACTION',
                                INTITULE='MILPASSI',
                                RESULTAT=MDEP,
                                NOM_CHAM='SIEF_ELNO_ELGA',
                                NUME_ORDRE=1,
                                GROUP_NO='SEGI10',
                                INVARIANT='OUI',),
                             _F(OPERATION='EXTRACTION',
                                INTITULE='MILGAIDE',
                                RESULTAT=MDEP,
                                NOM_CHAM='DEPL',
                                NUME_ORDRE=1,
                                GROUP_NO='SEGI16',
                                NOM_CMP=('DX','DY',),),
                             _F(OPERATION='EXTRACTION',
                                INTITULE='MILGAISI',
                                RESULTAT=MDEP,
                                NOM_CHAM='SIEF_ELNO_ELGA',
                                NUME_ORDRE=1,
                                GROUP_NO='SEGI16',
                                INVARIANT='OUI',),
                             _F(OPERATION='EXTRACTION',
                                INTITULE='BSUP_P_D',
                                RESULTAT=MDEP,
                                NOM_CHAM='DEPL',
                                NUME_ORDRE=1,
                                GROUP_NO='SEGS01',
                                NOM_CMP=('DX','DY',),),
                             _F(OPERATION='EXTRACTION',
                                INTITULE='BSUP_P_S',
                                RESULTAT=MDEP,
                                NOM_CHAM='SIEF_ELNO_ELGA',
                                NUME_ORDRE=1,
                                GROUP_NO='SEGS01',
                                INVARIANT='OUI',),
                             _F(OPERATION='EXTRACTION',
                                INTITULE='BSUP_G_D',
                                RESULTAT=MDEP,
                                NOM_CHAM='DEPL',
                                NUME_ORDRE=1,
                                GROUP_NO='SEGS12',
                                NOM_CMP=('DX','DY',),),
                             _F(OPERATION='EXTRACTION',
                                INTITULE='BSUP_G_S',
                                RESULTAT=MDEP,
                                NOM_CHAM='SIEF_ELNO_ELGA',
                                NUME_ORDRE=1,
                                GROUP_NO='SEGS12',
                                INVARIANT='OUI',),),);

TEST_TABLE(TABLE=MILSUP,
           FILTRE=_F(NOM_PARA='NOEUD',
                     VALE_K='N77',),
           NOM_PARA='DX',
           VALE=0.0235,);

TEST_TABLE(TABLE=MILSUP,
           FILTRE=_F(NOM_PARA='NOEUD',
                     VALE_K='N41',),
           NOM_PARA='DX',
           VALE=0.006217,);

TEST_TABLE(TABLE=MILSUP,
           FILTRE=_F(NOM_PARA='NOEUD',
                     VALE_K='N66',),
           NOM_PARA='DX',
           VALE=0.004796,);

TEST_TABLE(TABLE=MILSUP,
           FILTRE=_F(NOM_PARA='NOEUD',
                     VALE_K='N67',),
           NOM_PARA='DX',
           VALE=0.02335,);

TEST_TABLE(TABLE=MILSUP,
           FILTRE=_F(NOM_PARA='NOEUD',
                     VALE_K='N1',),
           NOM_PARA='DX',
           VALE=0.006219,);

TEST_TABLE(TABLE=MILSUP,
           FILTRE=_F(NOM_PARA='NOEUD',
                     VALE_K='N5',),
           NOM_PARA='DX',
           VALE=0.004798,);

TEST_TABLE(TABLE=MILSUP,
           FILTRE=_F(NOM_PARA='NOEUD',
                     VALE_K='N77',),
           NOM_PARA='VMIS',
           VALE=395.12,);

TEST_TABLE(TABLE=MILSUP,
           FILTRE=_F(NOM_PARA='NOEUD',
                     VALE_K='N41',),
           NOM_PARA='VMIS',
           VALE=38.8,);

TEST_TABLE(TABLE=MILSUP,
           FILTRE=_F(NOM_PARA='NOEUD',
                     VALE_K='N66',),
           NOM_PARA='VMIS',
           VALE=59.32,);

TEST_TABLE(TABLE=MILSUP,
           FILTRE=_F(NOM_PARA='NOEUD',
                     VALE_K='N67',),
           NOM_PARA='VMIS',
           VALE=390.0,);

TEST_TABLE(TABLE=MILSUP,
           FILTRE=_F(NOM_PARA='NOEUD',
                     VALE_K='N1',),
           NOM_PARA='VMIS',
           VALE=38.78,);

TEST_TABLE(TABLE=MILSUP,
           FILTRE=_F(NOM_PARA='NOEUD',
                     VALE_K='N5',),
           NOM_PARA='VMIS',
           VALE=59.28,);

FIN();
#
