# TITRE  VALIDATION DE LA PRISE EN COMPTE DES VARIABLES DE COMMANDE AUX SOUS-POINTS
# ======================================================================
# COPYRIGHT (C) 1991 - 2013  EDF R&D                  WWW.CODE-ASTER.ORG
# THIS PROGRAM IS FREE SOFTWARE; YOU CAN REDISTRIBUTE IT AND/OR MODIFY
# IT UNDER THE TERMS OF THE GNU GENERAL PUBLIC LICENSE AS PUBLISHED BY
# THE FREE SOFTWARE FOUNDATION; EITHER VERSION 2 OF THE LICENSE, OR
# (AT YOUR OPTION) ANY LATER VERSION.
#
# THIS PROGRAM IS DISTRIBUTED IN THE HOPE THAT IT WILL BE USEFUL, BUT
# WITHOUT ANY WARRANTY; WITHOUT EVEN THE IMPLIED WARRANTY OF
# MERCHANTABILITY OR FITNESS FOR A PARTICULAR PURPOSE. SEE THE GNU
# GENERAL PUBLIC LICENSE FOR MORE DETAILS.
#
# YOU SHOULD HAVE RECEIVED A COPY OF THE GNU GENERAL PUBLIC LICENSE
# ALONG WITH THIS PROGRAM; IF NOT, WRITE TO EDF R&D CODE_ASTER,
#    1 AVENUE DU GENERAL DE GAULLE, 92141 CLAMART CEDEX, FRANCE.
# ======================================================================

DEBUT(CODE=_F(NIV_PUB_WEB='INTERNET'),DEBUG=_F(SDVERI='OUI',),)

# ON TESTE LA METHODE SOUS_POINT DE PROJ_CHAMP POUR DES ELEMENTS DKT ET GRILLE
# LA TEMPERATURE D'UN CALCUL THERMIQUE 3D LINEAIRE STATIONNAIRE EST PROJETEE POUR UN CALCUL MECANIQUE
# LA SOLUTION DE REFERENCE EST UN AUTRE CALCUL ASTER OU LA EMPERATURE ETAIT DONNEE AVEC PREP_VRC1

import math

LINST =  DEFI_LIST_REEL(VALE=(0.,1.))


# Thermique 3D
MATH=LIRE_MAILLAGE(UNITE=19)
MOTH=AFFE_MODELE(MAILLAGE=MATH,
                 AFFE=_F(TOUT='OUI',PHENOMENE='THERMIQUE',MODELISATION='3D_DIAG'))
RHO_CP = 0.
LAMBDA = 2.0
BETON_TH = DEFI_MATERIAU(THER=_F(LAMBDA = LAMBDA,RHO_CP = RHO_CP))
MAT_TH = AFFE_MATERIAU(MAILLAGE = MATH,
                    AFFE =_F(GROUP_MA = 'POU3D' , MATER = BETON_TH,))


TIMP = AFFE_CHAR_THER(MODELE = MOTH,
                            TEMP_IMPO =( _F(GROUP_MA =('SINF'), TEMP = 50.),
                                                       _F(GROUP_MA =('SSUP'), TEMP = 20.),
                                                         ))
RESUTH = THER_LINEAIRE(MODELE=MOTH,
                     CHAM_MATER = MAT_TH,
                     EXCIT      = _F(CHARGE=TIMP),
                     ETAT_INIT=_F(VALE = 20.),
                     INCREMENT=_F(LIST_INST = LINST,),
                                  )

# Mecanique dalle
MA0=LIRE_MAILLAGE()
MA0=MODI_MAILLAGE(reuse=MA0,
                  MAILLAGE=MA0,
                                ORIE_NORM_COQUE=_F(GROUP_MA='SDAL',VECT_NORM=(0., 0., 1.),GROUP_NO='C1'))
MA1=CREA_MAILLAGE(MAILLAGE=MA0,
                  CREA_GROUP_MA=_F(NOM='ARMA',GROUP_MA='SDAL',PREF_MAILLE='A'))
IMPR_RESU(RESU=_F(MAILLAGE=MA1))
MO1=AFFE_MODELE(MAILLAGE=MA1,
                AFFE=(_F(GROUP_MA='SDAL',PHENOMENE='MECANIQUE',MODELISATION='DKT'),
                                    _F(GROUP_MA='ARMA',PHENOMENE='MECANIQUE',MODELISATION='GRILLE_EXCENTRE')
                              ))
# epaisseur dalle = 10 cm
epai=0.1
# phi 8, esp = 20 cm, enrobage = 2.5 cm
d=0.08
esp=0.2
sa=(math.pi*d*d/4.)/esp
enro=2.5e-2
exc=-epai/2.+enro

CA1=AFFE_CARA_ELEM(MODELE=MO1,
                   COQUE=_F(GROUP_MA='SDAL',EPAIS=epai,COQUE_NCOU=10),
                                 GRILLE=_F(GROUP_MA='ARMA',SECTION=sa,EXCENTREMENT=exc,ANGL_REP=(0.,0.)),
                                 )

BETON=DEFI_MATERIAU(ELAS=_F(E=3.E10, NU=0.2, ALPHA=1.E-5))
ACIER=DEFI_MATERIAU(ELAS=_F(E=2.E11, NU=0.3, ALPHA=2.E-5))

CL1=AFFE_CHAR_MECA(MODELE=MO1,
                   DDL_IMPO=(_F(GROUP_MA=('APP1','APP2'),DZ=0.),
                                           _F(GROUP_NO=('C1'),DY=0.),
                                           _F(GROUP_MA=('APP1'),DX=0.),)
                                 )


# chargement thermique par projection du calcul 3D
TEMP_SP2=PROJ_CHAMP(PROJECTION='OUI',METHODE='SOUS_POINT',
                   MAILLAGE_1 = MATH,
                   MODELE_2   = MO1,
                   RESULTAT   = RESUTH,
                                 NOM_CHAM   = 'TEMP',
                   CARA_ELEM  = CA1,
                   )

CHMA2=AFFE_MATERIAU(MAILLAGE=MA1,
                    AFFE=(_F(GROUP_MA='SDAL',MATER=BETON),
                                        _F(GROUP_MA='ARMA',MATER=ACIER),),
                    AFFE_VARC = _F( TOUT = 'OUI', NOM_VARC = 'TEMP', EVOL=TEMP_SP2,VALE_REF=20.),
                                  )

U2=STAT_NON_LINE(MODELE=MO1,
                 CHAM_MATER=CHMA2,
                 CARA_ELEM=CA1,
                 EXCIT=(_F(CHARGE=CL1,),
                                             ),
                 COMPORTEMENT=_F(GROUP_MA=('SDAL','ARMA'),RELATION='ELAS'),
                 NEWTON=_F(REAC_INCR=1,
                            REAC_ITER=1,
                            REAC_ITER_ELAS=1,
                            MATRICE='TANGENTE',
                            PAS_MINI_ELAS=100,
                            ),
                 INCREMENT=_F(LIST_INST=LINST),
                 );

#IMPR_RESU(RESU=_F(RESULTAT=U2,INST=1.))

TEST_RESU(RESU=(_F(INST=1.,
                   REFERENCE='AUTRE_ASTER',
                   RESULTAT=U2,
                   NOM_CHAM='DEPL',
                   GROUP_NO='C5',
                   NOM_CMP='DZ',
                   VALE_CALC=-2.82212559380283E-03,
                   VALE_REFE=-2.82212559380283E-03,
                   PRECISION=1.E-6,),
                _F(INST=1.,
                   REFERENCE='AUTRE_ASTER',
                   RESULTAT=U2,
                   NOM_CHAM='SIEF_ELGA',
                   MAILLE='M27',
                                 POINT=1,
                                 SOUS_POINT=1,
                   NOM_CMP='SIXX',
                   VALE_CALC=7.074958252E+06,
                   VALE_REFE=7.074958252E+06,
                   PRECISION=1.E-6,
                   ),
                _F(INST=1.,
                   REFERENCE='AUTRE_ASTER',
                   RESULTAT=U2,
                   NOM_CHAM='SIEF_ELGA',
                   MAILLE='M27',
                                 POINT=1,
                                 SOUS_POINT=30,
                   NOM_CMP='SIXX',
                   VALE_CALC=-1.524877428E+06,
                   VALE_REFE=-1.524877428E+06,
                   PRECISION=1.E-6,
                   ),
                _F(INST=1.,
                   REFERENCE='AUTRE_ASTER',
                   RESULTAT=U2,
                   NOM_CHAM='SIEF_ELGA',
                   MAILLE='AM27',
                                 POINT=1,
                                 SOUS_POINT=1,
                   NOM_CMP='SIXX',
                   VALE_CALC=-1.154105353E+07,
                   VALE_REFE=-1.154105353E+07,
                   PRECISION=1.E-6,
                   ),
               ))

FIN()
