# MODIF  DATE 13/12/2011   AUTEUR PELLET J.PELLET 
# TITRE VALIDATION DE AFFE_CARA_ELEM ET POST_ELEM
#            CONFIGURATION MANAGEMENT OF EDF VERSION
# ======================================================================
# COPYRIGHT (C) 1991 - 2011  EDF R&D                  WWW.CODE-ASTER.ORG
# THIS PROGRAM IS FREE SOFTWARE; YOU CAN REDISTRIBUTE IT AND/OR MODIFY
# IT UNDER THE TERMS OF THE GNU GENERAL PUBLIC LICENSE AS PUBLISHED BY
# THE FREE SOFTWARE FOUNDATION; EITHER VERSION 2 OF THE LICENSE, OR
# (AT YOUR OPTION) ANY LATER VERSION.
#
# THIS PROGRAM IS DISTRIBUTED IN THE HOPE THAT IT WILL BE USEFUL, BUT
# WITHOUT ANY WARRANTY; WITHOUT EVEN THE IMPLIED WARRANTY OF
# MERCHANTABILITY OR FITNESS FOR A PARTICULAR PURPOSE. SEE THE GNU
# GENERAL PUBLIC LICENSE FOR MORE DETAILS.
#
# YOU SHOULD HAVE RECEIVED A COPY OF THE GNU GENERAL PUBLIC LICENSE
# ALONG WITH THIS PROGRAM; IF NOT, WRITE TO EDF R&D CODE_ASTER,
#    1 AVENUE DU GENERAL DE GAULLE, 92141 CLAMART CEDEX, FRANCE.
# ======================================================================


DEBUT(CODE=_F(NOM='ZZZZ101A', NIV_PUB_WEB='INTERNET'), DEBUG=_F(SDVERI='OUI'))

MA=LIRE_MAILLAGE( )

LONG=sqrt( 8. )

RHO=1.5

A=1.570

EP=0.030

EPY=0.050

EPZ=0.070

HY=1.0

HZ=1.3

E_HY=HY - ( 2. * EPY )

E_HZ=HZ - ( 2. * EPZ )

R_E=1.

R_I=R_E - EP

S_C=( R_E * R_E ) - ( R_I * R_I )

IXX_QUA4=2. * EP * RHO + EP * 6. * RHO * EP * EP / 12.

IYY_QUA4=4.5 * EP * RHO + EP * 6. * RHO * EP * EP / 12.

IZZ_QUA4=( 2. + 4.5 ) * EP * RHO

MAS_QUA4=6. * EP * RHO

IXX_Q4P=IXX_QUA4 + (MAS_QUA4 * ((2. - 3.)*(2. - 3.) + (7. - 2.)*(7. - 2.)))

IYY_Q4P=IYY_QUA4 + (MAS_QUA4 * ((2.5 - 4.)*(2.5 - 4.) + (7. - 2.)*(7. - 2.)))

IZZ_Q4P=IZZ_QUA4 + (MAS_QUA4 * ((2. - 3.)*(2. - 3.)+ (2.5 - 4.)*(2.5 - 4.)))

IXX_TRI3=16. * EP * RHO / 12. + EP * 6. * RHO * EP * EP / 12.

IYY_TRI3=16. * EP * RHO / 12. + EP * 6. * RHO * EP * EP / 12.

IZZ_TRI3=( 32. / 12. ) * EP * RHO

MATER=DEFI_MATERIAU(  ELAS=_F(  E = 2.E11,  RHO = RHO,  NU = 0.3)  )

CHMAT=AFFE_MATERIAU(  MAILLAGE=MA,
                          AFFE=_F(  TOUT = 'OUI',    MATER = MATER)  )

#
# ========================= ELEMENT DISCRET ============================

RHO_D=1.5E+04

A_D=3.4390E-03

M_D=RHO_D * A_D * 1.

IX_D=2.7540E-05

IY_D=1.3770E-05

IZ_D=1.3770E-05

EX_D=0.001

EY_D=0.002

EZ_D=0.003

MAT_DIS=DEFI_MATERIAU( ELAS=_F(  E = 2.E11,  RHO = RHO_D,  NU = 0.3) )

CHM_D1=AFFE_MATERIAU(  MAILLAGE=MA,
                           AFFE=_F(  MAILLE = 'P1',    MATER = MAT_DIS)     )

CHM_D2=AFFE_MATERIAU(  MAILLAGE=MA,
                           AFFE=_F(  MAILLE = 'MA1',   MATER = MAT_DIS)     )

MO_D_TR1=AFFE_MODELE(  MAILLAGE=MA,
                     AFFE=_F(  MAILLE = 'P1',   PHENOMENE = 'MECANIQUE',
                            MODELISATION = 'DIS_TR')     )

MO_D_TR2=AFFE_MODELE(  MAILLAGE=MA,
                     AFFE=_F(  MAILLE = 'MA1',  PHENOMENE = 'MECANIQUE',
                            MODELISATION = 'DIS_TR')     )

MO_D_T1=AFFE_MODELE(  MAILLAGE=MA,
                     AFFE=_F(  MAILLE = 'P1',   PHENOMENE = 'MECANIQUE',
                            MODELISATION = 'DIS_T')    )

MO_D_T2=AFFE_MODELE(  MAILLAGE=MA,
                     AFFE=_F(  MAILLE = 'MA1',  PHENOMENE = 'MECANIQUE',
                            MODELISATION = 'DIS_T')    )

# --- ELEMENT 'M_T_D_N'

CP_D_T1=AFFE_CARA_ELEM(  MODELE=MO_D_T1,
                              DISCRET=_F(  MAILLE = 'P1',
                                        CARA = 'M_T_D_N',
                                        VALE = M_D)    )

MP_D_T1=POST_ELEM(  MODELE=MO_D_T1,      MASS_INER=_F(  MAILLE = 'P1'),
                         CHAM_MATER=CHM_D1,    CARA_ELEM=CP_D_T1      )

TEST_TABLE(      TABLE=MP_D_T1,
                            FILTRE=_F(  NOM_PARA = 'LIEU',
                                     VALE_K = 'P1'),
                          NOM_PARA='MASSE',
                              VALE=M_D,
                           REFERENCE='ANALYTIQUE'      )

TEST_TABLE(      TABLE=MP_D_T1,
                            FILTRE=_F(  NOM_PARA = 'LIEU',
                                     VALE_K = 'P1'),
                          NOM_PARA='CDG_X',
                              VALE=1.,
                           REFERENCE='ANALYTIQUE')

TEST_TABLE(      TABLE=MP_D_T1,
                            FILTRE=_F(  NOM_PARA = 'LIEU',
                                     VALE_K = 'P1'),
                          NOM_PARA='CDG_Y',
                              VALE=1.,
                           REFERENCE='ANALYTIQUE')

TEST_TABLE(      TABLE=MP_D_T1,
                            FILTRE=_F(  NOM_PARA = 'LIEU',
                                     VALE_K = 'P1'),
                          NOM_PARA='CDG_Z',
                              VALE=7.,
                           REFERENCE='ANALYTIQUE')

# --- ELEMENT 'M_T_N'

CP_D_T2=AFFE_CARA_ELEM(  MODELE=MO_D_T1,
                              DISCRET=_F(  MAILLE = 'P1',
                                        CARA = 'M_T_N',
                                        VALE = ( M_D,  -1.,  M_D,
                                                0.5,  0.5,  M_D,  ))  )

MP_D_T2=POST_ELEM(  MODELE=MO_D_T1,      MASS_INER=_F(  MAILLE = 'P1'),
                         CHAM_MATER=CHM_D1,    CARA_ELEM=CP_D_T2      )

TEST_TABLE(      TABLE=MP_D_T2,
                            FILTRE=_F(  NOM_PARA = 'LIEU',
                                     VALE_K = 'P1'),
                          NOM_PARA='MASSE',
                              VALE=M_D,
                           REFERENCE='ANALYTIQUE')

TEST_TABLE(      TABLE=MP_D_T2,
                            FILTRE=_F(  NOM_PARA = 'LIEU',
                                     VALE_K = 'P1'),
                          NOM_PARA='CDG_X',
                              VALE=1.,
                           REFERENCE='ANALYTIQUE')

TEST_TABLE(      TABLE=MP_D_T2,
                            FILTRE=_F(  NOM_PARA = 'LIEU',
                                     VALE_K = 'P1'),
                          NOM_PARA='CDG_Y',
                              VALE=1.,
                           REFERENCE='ANALYTIQUE')

TEST_TABLE(      TABLE=MP_D_T2,
                            FILTRE=_F(  NOM_PARA = 'LIEU',
                                     VALE_K = 'P1'),
                          NOM_PARA='CDG_Z',
                              VALE=7.,
                           REFERENCE='ANALYTIQUE' )

# --- ELEMENT 'M_TR_D_N'

CP_D_TR1=AFFE_CARA_ELEM(  MODELE=MO_D_TR1,
                              DISCRET=_F(  MAILLE = 'P1',
                                        CARA = 'M_TR_D_N',
                                        VALE = ( M_D,  IX_D, IY_D, IZ_D,
                                       0., 0., 0.,  EX_D, EY_D, EZ_D, )) )

MP_D_TR1=POST_ELEM(  MODELE=MO_D_TR1,     MASS_INER=_F(  MAILLE = 'P1'),
                         CHAM_MATER=CHM_D1,    CARA_ELEM=CP_D_TR1     )

TEST_TABLE(      TABLE=MP_D_TR1,
                            FILTRE=_F(  NOM_PARA = 'LIEU',
                                     VALE_K = 'P1'),
                          NOM_PARA='MASSE',
                              VALE=M_D,
                           REFERENCE='ANALYTIQUE')

TEST_TABLE(      TABLE=MP_D_TR1,
                            FILTRE=_F(  NOM_PARA = 'LIEU',
                                     VALE_K = 'P1'),
                          NOM_PARA='CDG_X',
                              VALE=1.,
                           REFERENCE='ANALYTIQUE')

TEST_TABLE(      TABLE=MP_D_TR1,
                            FILTRE=_F(  NOM_PARA = 'LIEU',
                                     VALE_K = 'P1'),
                          NOM_PARA='CDG_Y',
                              VALE=1.,
                           REFERENCE='ANALYTIQUE' )

TEST_TABLE(      TABLE=MP_D_TR1,
                            FILTRE=_F(  NOM_PARA = 'LIEU',
                                     VALE_K = 'P1'),
                          NOM_PARA='CDG_Z',
                              VALE=7.,
                           REFERENCE='ANALYTIQUE')

val1=IX_D + M_D*(EZ_D*EZ_D + EY_D*EY_D)
TEST_TABLE(      TABLE=MP_D_TR1,
                            FILTRE=_F(  NOM_PARA = 'LIEU',
                                     VALE_K = 'P1'),
                          NOM_PARA='IX_G',
                     VALE=val1,
                       REFERENCE='ANALYTIQUE')

val2=IY_D + M_D*(EZ_D*EZ_D + EX_D*EX_D)
TEST_TABLE(      TABLE=MP_D_TR1,
                            FILTRE=_F(  NOM_PARA = 'LIEU',
                                     VALE_K = 'P1'),
                          NOM_PARA='IY_G',
                     VALE=val2,
                       REFERENCE='ANALYTIQUE')

val3=IZ_D + M_D*(EY_D*EY_D + EX_D*EX_D)
TEST_TABLE(      TABLE=MP_D_TR1,
                            FILTRE=_F(  NOM_PARA = 'LIEU',
                                     VALE_K = 'P1'),
                          NOM_PARA='IZ_G',
                     VALE=val3,
                       REFERENCE='ANALYTIQUE')

val4=-M_D * EX_D * EY_D
TEST_TABLE(      TABLE=MP_D_TR1,
                            FILTRE=_F(  NOM_PARA = 'LIEU',
                                     VALE_K = 'P1'),
                          NOM_PARA='IXY_G',
                       VALE=val4,
                         REFERENCE='ANALYTIQUE')

val5=-M_D * EX_D * EZ_D
TEST_TABLE(      TABLE=MP_D_TR1,
                            FILTRE=_F(  NOM_PARA = 'LIEU',
                                     VALE_K = 'P1'),
                          NOM_PARA='IXZ_G',
                       VALE=val5,
                         REFERENCE='ANALYTIQUE')

val6=-M_D * EY_D * EZ_D
TEST_TABLE(      TABLE=MP_D_TR1,
                            FILTRE=_F(  NOM_PARA = 'LIEU',
                                     VALE_K = 'P1'),
                          NOM_PARA='IYZ_G',
                       VALE=val6,
                         REFERENCE='ANALYTIQUE')

# --- ELEMENT 'M_TR_N'

CP_D_TR2=AFFE_CARA_ELEM(  MODELE=MO_D_TR1,
                              DISCRET=_F(  MAILLE = 'P1',
                                        CARA = 'M_TR_N',
                                        VALE = (   5.158E+01,  0.000E+00,
      5.158E+01,  0.000E+00,  0.000E+00,  5.158E+01,  0.000E+00, -1.548E-01,
      1.032E-01,  6.981E-04,  1.548E-01,  0.000E+00, -5.158E-02, -1.032E-04,
      5.296E-04, -1.032E-01,  5.158E-02,  0.000E+00, -1.548E-04, -3.095E-04,
      2.717E-04,             ))     )

MP_D_TR2=POST_ELEM(  MODELE=MO_D_TR1,     MASS_INER=_F(  MAILLE = 'P1'),
                         CHAM_MATER=CHM_D1,    CARA_ELEM=CP_D_TR2     )

TEST_TABLE(      TABLE=MP_D_TR2,
                            FILTRE=_F(  NOM_PARA = 'LIEU',
                                     VALE_K = 'P1'),
                          NOM_PARA='MASSE',
                              VALE=M_D,
                           REFERENCE='ANALYTIQUE')

TEST_TABLE(      TABLE=MP_D_TR2,
                            FILTRE=_F(  NOM_PARA = 'LIEU',
                                     VALE_K = 'P1'),
                          NOM_PARA='CDG_X',
                              VALE=1.,
                           REFERENCE='ANALYTIQUE')

TEST_TABLE(      TABLE=MP_D_TR2,
                            FILTRE=_F(  NOM_PARA = 'LIEU',
                                     VALE_K = 'P1'),
                          NOM_PARA='CDG_Y',
                              VALE=1.,
                           REFERENCE='ANALYTIQUE')

TEST_TABLE(      TABLE=MP_D_TR2,
                            FILTRE=_F(  NOM_PARA = 'LIEU',
                                     VALE_K = 'P1'),
                          NOM_PARA='CDG_Z',
                              VALE=7.,
                           REFERENCE='ANALYTIQUE')

val7=IX_D + M_D*(EZ_D*EZ_D + EY_D*EY_D)
TEST_TABLE(      TABLE=MP_D_TR2,
                            FILTRE=_F(  NOM_PARA = 'LIEU',
                                     VALE_K = 'P1'),
                          NOM_PARA='IX_G',
                     VALE=val7,
                       REFERENCE='ANALYTIQUE')

val8=IY_D + M_D*(EZ_D*EZ_D + EX_D*EX_D)
TEST_TABLE(      TABLE=MP_D_TR2,
                            FILTRE=_F(  NOM_PARA = 'LIEU',
                                     VALE_K = 'P1'),
                          NOM_PARA='IY_G',
                     VALE=val8,
                       REFERENCE='ANALYTIQUE')

val9=IZ_D + M_D*(EY_D*EY_D + EX_D*EX_D)
TEST_TABLE(      TABLE=MP_D_TR2,
                            FILTRE=_F(  NOM_PARA = 'LIEU',
                                     VALE_K = 'P1'),
                          NOM_PARA='IZ_G',
                     VALE=val9,
                       REFERENCE='ANALYTIQUE' )

val10=-M_D * EX_D * EY_D
TEST_TABLE(      TABLE=MP_D_TR2,
                            FILTRE=_F(  NOM_PARA = 'LIEU',
                                     VALE_K = 'P1'),
                          NOM_PARA='IXY_G',
                       VALE=val10,
                         REFERENCE='ANALYTIQUE' )

val11=-M_D * EX_D * EZ_D
TEST_TABLE(      TABLE=MP_D_TR2,
                            FILTRE=_F(  NOM_PARA = 'LIEU',
                                     VALE_K = 'P1'),
                          NOM_PARA='IXZ_G',
                       VALE=val11,
                         REFERENCE='ANALYTIQUE')

val12=-M_D * EY_D * EZ_D
TEST_TABLE(      TABLE=MP_D_TR2,
                            FILTRE=_F(  NOM_PARA = 'LIEU',
                                     VALE_K = 'P1'),
                          NOM_PARA='IYZ_G',
                       VALE=val12,
                         REFERENCE='ANALYTIQUE')

# --- ELEMENT 'M_T_L'

CS_D_T1=AFFE_CARA_ELEM(  MODELE=MO_D_T2,
                              DISCRET=_F(  MAILLE = 'MA1',
                                        CARA = 'M_T_L',
                                        VALE = ( 1., 0., 1., 0., 0., 1.,
                                         1., 0., -1., 1., 0., -2., 0., 0., 1.,
                                           1., 0., 1., 0.5, -0.5, 1.,  )) )

MS_D_T1=POST_ELEM(  MODELE=MO_D_T2,      MASS_INER=_F(  MAILLE = 'MA1'),
                         CHAM_MATER=CHM_D2,    CARA_ELEM=CS_D_T1      )

TEST_TABLE(      TABLE=MS_D_T1,
                            FILTRE=_F(  NOM_PARA = 'LIEU',
                                     VALE_K = 'MA1'),
                          NOM_PARA='MASSE',
                              VALE=2.,
                           REFERENCE='ANALYTIQUE')

TEST_TABLE(      TABLE=MS_D_T1,
                            FILTRE=_F(  NOM_PARA = 'LIEU',
                                     VALE_K = 'MA1'),
                          NOM_PARA='CDG_X',
                              VALE=1.5,
                           REFERENCE='ANALYTIQUE')

TEST_TABLE(      TABLE=MS_D_T1,
                            FILTRE=_F(  NOM_PARA = 'LIEU',
                                     VALE_K = 'MA1'),
                          NOM_PARA='CDG_Y',
                              VALE=1.,
                           REFERENCE='ANALYTIQUE')

TEST_TABLE(      TABLE=MS_D_T1,
                            FILTRE=_F(  NOM_PARA = 'LIEU',
                                     VALE_K = 'MA1'),
                          NOM_PARA='CDG_Z',
                              VALE=7.,
                           REFERENCE='ANALYTIQUE')

# --- ELEMENT 'M_TR_L'

CS_D_TR1=AFFE_CARA_ELEM(  MODELE=MO_D_TR2,
                              DISCRET=_F(  MAILLE = 'MA1',
                                        CARA = 'M_TR_L',
                                        VALE = (
       1.71950E+01,  0.00000E+00,  1.88867E+01,  0.00000E+00,  0.00000E+00,
       1.88867E+01,  0.00000E+00,  0.00000E+00,  0.00000E+00,  1.37700E-01,
       0.00000E+00,  0.00000E+00, -2.56864E+00,  0.00000E+00,  4.95074E-01,
       0.00000E+00,  2.56864E+00,  0.00000E+00,  0.00000E+00,  0.00000E+00,
       4.95074E-01,  8.59750E+00,  0.00000E+00,  0.00000E+00,  0.00000E+00,
       0.00000E+00,  0.00000E+00,  1.71950E+01,  0.00000E+00,  6.90582E+00,
       0.00000E+00,  0.00000E+00,  0.00000E+00,  1.73011E+00,  0.00000E+00,
       1.88867E+01,  0.00000E+00,  0.00000E+00,  6.90582E+00,  0.00000E+00,
      -1.73011E+00,  0.00000E+00,  0.00000E+00,  0.00000E+00,  1.88867E+01,
       0.00000E+00,  0.00000E+00,  0.00000E+00,  6.88500E-02,  0.00000E+00,
       0.00000E+00,  0.00000E+00,  0.00000E+00,  0.00000E+00,  1.37700E-01,
       0.00000E+00,  0.00000E+00,  1.73011E+00,  0.00000E+00, -3.99101E-01,
       0.00000E+00,  0.00000E+00,  0.00000E+00,  2.56864E+00,  0.00000E+00,
       4.95074E-01,  0.00000E+00, -1.73011E+00,  0.00000E+00,  0.00000E+00,
       0.00000E+00, -3.99101E-01,  0.00000E+00, -2.56864E+00,  0.00000E+00,
       0.00000E+00,  0.00000E+00,  4.95074E-01,
                                               ))      )

MS_D_TR1=POST_ELEM(  MODELE=MO_D_TR2,     MASS_INER=_F(  MAILLE = 'MA1'),
                         CHAM_MATER=CHM_D2,    CARA_ELEM=CS_D_TR1     )

TEST_TABLE(      TABLE=MS_D_TR1,
                            FILTRE=_F(  NOM_PARA = 'LIEU',
                                     VALE_K = 'MA1'),
                          NOM_PARA='MASSE',
                              VALE=M_D,
                           REFERENCE='ANALYTIQUE')

TEST_TABLE(      TABLE=MS_D_TR1,
                            FILTRE=_F(  NOM_PARA = 'LIEU',
                                     VALE_K = 'MA1'),
                          NOM_PARA='CDG_X',
                              VALE=1.5,
                           REFERENCE='ANALYTIQUE')

TEST_TABLE(      TABLE=MS_D_TR1,
                            FILTRE=_F(  NOM_PARA = 'LIEU',
                                     VALE_K = 'MA1'),
                          NOM_PARA='CDG_Y',
                              VALE=1.,
                           REFERENCE='ANALYTIQUE')

TEST_TABLE(      TABLE=MS_D_TR1,
                            FILTRE=_F(  NOM_PARA = 'LIEU',
                                     VALE_K = 'MA1'),
                          NOM_PARA='CDG_Z',
                              VALE=7.,
                           REFERENCE='ANALYTIQUE')

#
# ========================= ELEMENT BARRE ==============================


MO_BARRE=AFFE_MODELE(  MAILLAGE=MA,
                      AFFE=_F(  GROUP_MA = 'MA_SEG2',    PHENOMENE = 'MECANIQUE',
                             MODELISATION = 'BARRE')    )

#
# ----------------------- SECTION GENERALE -----------------------------

CA_BA0=AFFE_CARA_ELEM(  MODELE=MO_BARRE,
                      BARRE=_F(  GROUP_MA = 'MA_SEG2',   SECTION = 'GENERALE',
                              CARA = 'A',          VALE = A)  )

MA_BA0=POST_ELEM(  MODELE=MO_BARRE,
                       MASS_INER=_F(  GROUP_MA = 'MA_SEG2'),
                        CHAM_MATER=CHMAT,    CARA_ELEM=CA_BA0         )

val13=A * LONG * RHO
TEST_TABLE(      TABLE=MA_BA0,
                            FILTRE=_F(  NOM_PARA = 'LIEU',
                                     VALE_K = 'MA_SEG2'),
                          NOM_PARA='MASSE',
                              VALE=val13,
                           REFERENCE='ANALYTIQUE')

TEST_TABLE(      TABLE=MA_BA0,
                            FILTRE=_F(  NOM_PARA = 'LIEU',
                                     VALE_K = 'MA_SEG2'),
                          NOM_PARA='CDG_X',
                              VALE=3.,
                           REFERENCE='ANALYTIQUE')

TEST_TABLE(      TABLE=MA_BA0,
                            FILTRE=_F(  NOM_PARA = 'LIEU',
                                     VALE_K = 'MA_SEG2'),
                          NOM_PARA='CDG_Y',
                              VALE=2.,
                           REFERENCE='ANALYTIQUE')

TEST_TABLE(      TABLE=MA_BA0,
                            FILTRE=_F(  NOM_PARA = 'LIEU',
                                     VALE_K = 'MA_SEG2'),
                          NOM_PARA='CDG_Z',
                              VALE=7.,
                           REFERENCE='ANALYTIQUE')

#
# ----------------------- SECTION RECTANGLE ----------------------------

CA_BA1=AFFE_CARA_ELEM(  MODELE=MO_BARRE,
                      BARRE=_F(  GROUP_MA = 'MA_SEG2',   SECTION = 'RECTANGLE',
                              CARA = 'H',           VALE = HY)  )

MA_BA1=POST_ELEM(  MODELE=MO_BARRE,
                       MASS_INER=_F(  GROUP_MA = 'MA_SEG2'),
                        CHAM_MATER=CHMAT,    CARA_ELEM=CA_BA1         )

val14=HY * HY * LONG * RHO
TEST_TABLE(      TABLE=MA_BA1,
                            FILTRE=_F(  NOM_PARA = 'LIEU',
                                     VALE_K = 'MA_SEG2'),
                          NOM_PARA='MASSE',
                              VALE=val14,
                           REFERENCE='ANALYTIQUE')

CA_BA2=AFFE_CARA_ELEM(  MODELE=MO_BARRE,
                      BARRE=_F(  GROUP_MA = 'MA_SEG2',   SECTION = 'RECTANGLE',
                             CARA = ( 'H', 'EP', ),    VALE = ( HY, EPY, ))  )

MA_BA2=POST_ELEM(  MODELE=MO_BARRE,
                       MASS_INER=_F(  GROUP_MA = 'MA_SEG2'),
                        CHAM_MATER=CHMAT,    CARA_ELEM=CA_BA2         )

val15=( HY * HY - E_HY * E_HY )*LONG*RHO
TEST_TABLE(      TABLE=MA_BA2,
                            FILTRE=_F(  NOM_PARA = 'LIEU',
                                     VALE_K = 'MA_SEG2'),
                          NOM_PARA='MASSE',
                       VALE=val15,
                         REFERENCE='ANALYTIQUE')

CA_BA3=AFFE_CARA_ELEM(  MODELE=MO_BARRE,
                      BARRE=_F(  GROUP_MA = 'MA_SEG2',   SECTION = 'RECTANGLE',
                              CARA = ( 'HY', 'EPY', 'HZ', 'EPZ', ),
                              VALE = (  HY,   EPY,   HZ,   EPZ,  ))    )

MA_BA3=POST_ELEM(  MODELE=MO_BARRE,
                       MASS_INER=_F(  GROUP_MA = 'MA_SEG2'),
                        CHAM_MATER=CHMAT,    CARA_ELEM=CA_BA3         )

val16=( HY * HZ - E_HY * E_HZ )*LONG*RHO
TEST_TABLE(      TABLE=MA_BA3,
                            FILTRE=_F(  NOM_PARA = 'LIEU',
                                     VALE_K = 'MA_SEG2'),
                          NOM_PARA='MASSE',
                       VALE=val16,
                         REFERENCE='ANALYTIQUE')

#
# ------------------------- SECTION CERCLE -----------------------------

CA_BA4=AFFE_CARA_ELEM(  MODELE=MO_BARRE,
                      BARRE=_F(  GROUP_MA = 'MA_SEG2',   SECTION = 'CERCLE',
                              CARA = 'R',           VALE = R_E)   )

MA_BA4=POST_ELEM(  MODELE=MO_BARRE,
                       MASS_INER=_F(  GROUP_MA = 'MA_SEG2'),
                        CHAM_MATER=CHMAT,    CARA_ELEM=CA_BA4         )

val17=pi * R_E * R_E * LONG * RHO
TEST_TABLE(      TABLE=MA_BA4,
                            FILTRE=_F(  NOM_PARA = 'LIEU',
                                     VALE_K = 'MA_SEG2'),
                          NOM_PARA='MASSE',
                           VALE=val17,
                           REFERENCE='ANALYTIQUE' )

CA_BA5=AFFE_CARA_ELEM(  MODELE=MO_BARRE,
                      BARRE=_F(  GROUP_MA = 'MA_SEG2',   SECTION = 'CERCLE',
                              CARA = ( 'R', 'EP', ),   VALE = ( R_E,  EP, )) )

MA_BA5=POST_ELEM(  MODELE=MO_BARRE,
                       MASS_INER=_F(  GROUP_MA = 'MA_SEG2'),
                        CHAM_MATER=CHMAT,    CARA_ELEM=CA_BA5         )

val18=pi * S_C * LONG * RHO
TEST_TABLE(      TABLE=MA_BA5,
                            FILTRE=_F(  NOM_PARA = 'LIEU',
                                     VALE_K = 'MA_SEG2'),
                          NOM_PARA='MASSE',
                              VALE=val18,
                           REFERENCE='ANALYTIQUE')

#
# ========================= ELEMENT POUTRE =============================


MO_POU_E=AFFE_MODELE(  MAILLAGE=MA,
                      AFFE=_F(  GROUP_MA = 'MA_SEG2',    PHENOMENE = 'MECANIQUE',
                             MODELISATION = 'POU_D_E')    )

MO_POU_T=AFFE_MODELE(  MAILLAGE=MA,
                      AFFE=_F(  GROUP_MA = 'MA_SEG2',    PHENOMENE = 'MECANIQUE',
                             MODELISATION = 'POU_D_T')    )

#
# ----------------------- SECTION GENERALE -----------------------------

CA_PO_E0=AFFE_CARA_ELEM(  MODELE=MO_POU_E,
                        POUTRE=_F(  GROUP_MA = 'MA_SEG2',   SECTION = 'GENERALE',
                                 CARA = ( 'A',  'IY',  'IZ',  'JX', ),
                                 VALE = (  A,    1.,    1.,    1.,  ))  )

MA_PO_E0=POST_ELEM(  MODELE=MO_POU_E,
                         MASS_INER=_F(  GROUP_MA = 'MA_SEG2'),
                          CHAM_MATER=CHMAT,    CARA_ELEM=CA_PO_E0     )

val19=A * LONG * RHO
TEST_TABLE(      TABLE=MA_PO_E0,
                            FILTRE=_F(  NOM_PARA = 'LIEU',
                                     VALE_K = 'MA_SEG2'),
                          NOM_PARA='MASSE',
                              VALE=val19,
                           REFERENCE='ANALYTIQUE')

TEST_TABLE(      TABLE=MA_PO_E0,
                            FILTRE=_F(  NOM_PARA = 'LIEU',
                                     VALE_K = 'MA_SEG2'),
                          NOM_PARA='CDG_X',
                              VALE=3.,
                           REFERENCE='ANALYTIQUE')

TEST_TABLE(      TABLE=MA_PO_E0,
                            FILTRE=_F(  NOM_PARA = 'LIEU',
                                     VALE_K = 'MA_SEG2'),
                          NOM_PARA='CDG_Y',
                              VALE=2.,
                           REFERENCE='ANALYTIQUE')

TEST_TABLE(      TABLE=MA_PO_E0,
                            FILTRE=_F(  NOM_PARA = 'LIEU',
                                     VALE_K = 'MA_SEG2'),
                          NOM_PARA='CDG_Z',
                              VALE=7.,
                           REFERENCE='ANALYTIQUE')

CA_PO_T0=AFFE_CARA_ELEM(  MODELE=MO_POU_T,
                        POUTRE=_F(  GROUP_MA = 'MA_SEG2',   SECTION = 'GENERALE',
                               CARA = ( 'A', 'IY', 'IZ', 'JX', 'AY', 'AZ',),
                               VALE = (  A,   1.,  1.,  1.,  1.,  1., )) )

MA_PO_T0=POST_ELEM(  MODELE=MO_POU_T,
                         MASS_INER=_F(  GROUP_MA = 'MA_SEG2'),
                          CHAM_MATER=CHMAT,    CARA_ELEM=CA_PO_T0     )

val20=A * LONG * RHO
TEST_TABLE(      TABLE=MA_PO_T0,
                            FILTRE=_F(  NOM_PARA = 'LIEU',
                                     VALE_K = 'MA_SEG2'),
                          NOM_PARA='MASSE',
                              VALE=val20,
                           REFERENCE='ANALYTIQUE')

TEST_TABLE(      TABLE=MA_PO_T0,
                            FILTRE=_F(  NOM_PARA = 'LIEU',
                                     VALE_K = 'MA_SEG2'),
                          NOM_PARA='CDG_X',
                              VALE=3.,
                           REFERENCE='ANALYTIQUE')

TEST_TABLE(      TABLE=MA_PO_T0,
                            FILTRE=_F(  NOM_PARA = 'LIEU',
                                     VALE_K = 'MA_SEG2'),
                          NOM_PARA='CDG_Y',
                              VALE=2.,
                           REFERENCE='ANALYTIQUE')

TEST_TABLE(      TABLE=MA_PO_T0,
                            FILTRE=_F(  NOM_PARA = 'LIEU',
                                     VALE_K = 'MA_SEG2'),
                          NOM_PARA='CDG_Z',
                              VALE=7.,
                           REFERENCE='ANALYTIQUE')

#
# ----------------------- SECTION RECTANGLE ----------------------------

CA_PO_E1=AFFE_CARA_ELEM(  MODELE=MO_POU_E,
                        POUTRE=_F(  GROUP_MA = 'MA_SEG2',   SECTION = 'RECTANGLE',
                                 CARA = 'H',          VALE = HY)  )

MA_PO_E1=POST_ELEM(  MODELE=MO_POU_E,
                         MASS_INER=_F(  GROUP_MA = 'MA_SEG2'),
                          CHAM_MATER=CHMAT,    CARA_ELEM=CA_PO_E1     )

val21=HY * HY * LONG * RHO
TEST_TABLE(      TABLE=MA_PO_E1,
                            FILTRE=_F(  NOM_PARA = 'LIEU',
                                     VALE_K = 'MA_SEG2'),
                          NOM_PARA='MASSE',
                              VALE=val21,
                           REFERENCE='ANALYTIQUE'  )

CA_PO_E2=AFFE_CARA_ELEM(  MODELE=MO_POU_E,
                        POUTRE=_F(  GROUP_MA = 'MA_SEG2',   SECTION = 'RECTANGLE',
                                 CARA = ( 'H',  'EP',  ),
                                 VALE = (  HY,   EPY,  ))            )

MA_PO_E2=POST_ELEM(  MODELE=MO_POU_E,
                         MASS_INER=_F(  GROUP_MA = 'MA_SEG2'),
                          CHAM_MATER=CHMAT,    CARA_ELEM=CA_PO_E2     )

val22=(HY * HY - E_HY * E_HY )*LONG*RHO
TEST_TABLE(      TABLE=MA_PO_E2,
                            FILTRE=_F(  NOM_PARA = 'LIEU',
                                     VALE_K = 'MA_SEG2'),
                          NOM_PARA='MASSE',
                       VALE=val22,
                         REFERENCE='ANALYTIQUE' )

CA_PO_E3=AFFE_CARA_ELEM(  MODELE=MO_POU_E,
                        POUTRE=_F(  GROUP_MA = 'MA_SEG2',   SECTION = 'RECTANGLE',
                                 CARA = ( 'HY', 'EPY', 'HZ', 'EPZ', ),
                                 VALE = (  HY,   EPY,   HZ,   EPZ,  ))  )

MA_PO_E3=POST_ELEM(  MODELE=MO_POU_E,
                         MASS_INER=_F(  GROUP_MA = 'MA_SEG2'),
                          CHAM_MATER=CHMAT,    CARA_ELEM=CA_PO_E3     )

val23=( HY * HZ - E_HY * E_HZ )*LONG*RHO
TEST_TABLE(      TABLE=MA_PO_E3,
                            FILTRE=_F(  NOM_PARA = 'LIEU',
                                     VALE_K = 'MA_SEG2'),
                          NOM_PARA='MASSE',
                       VALE=val23,
                         REFERENCE='ANALYTIQUE' )

CA_PO_T1=AFFE_CARA_ELEM(  MODELE=MO_POU_T,
                        POUTRE=_F(  GROUP_MA = 'MA_SEG2',   SECTION = 'RECTANGLE',
                                 CARA = 'H',          VALE = HY)  )

MA_PO_T1=POST_ELEM(  MODELE=MO_POU_T,
                         MASS_INER=_F(  GROUP_MA = 'MA_SEG2'),
                          CHAM_MATER=CHMAT,    CARA_ELEM=CA_PO_T1     )

val24=HY * HY * LONG * RHO
TEST_TABLE(      TABLE=MA_PO_T1,
                            FILTRE=_F(  NOM_PARA = 'LIEU',
                                     VALE_K = 'MA_SEG2'),
                          NOM_PARA='MASSE',
                              VALE=val24,
                           REFERENCE='ANALYTIQUE'  )

CA_PO_T2=AFFE_CARA_ELEM(  MODELE=MO_POU_T,
                        POUTRE=_F(  GROUP_MA = 'MA_SEG2',   SECTION = 'RECTANGLE',
                                 CARA = ( 'H',  'EP',  ),
                                 VALE = (  HY,   EPY,  ))            )

MA_PO_T2=POST_ELEM(  MODELE=MO_POU_T,
                         MASS_INER=_F(  GROUP_MA = 'MA_SEG2'),
                          CHAM_MATER=CHMAT,    CARA_ELEM=CA_PO_T2     )

val25=( HY * HY - E_HY * E_HY )*LONG*RHO
TEST_TABLE(      TABLE=MA_PO_T2,
                            FILTRE=_F(  NOM_PARA = 'LIEU',
                                     VALE_K = 'MA_SEG2'),
                          NOM_PARA='MASSE',
                       VALE=val25,
                         REFERENCE='ANALYTIQUE' )

CA_PO_T3=AFFE_CARA_ELEM(  MODELE=MO_POU_T,
                        POUTRE=_F(  GROUP_MA = 'MA_SEG2',   SECTION = 'RECTANGLE',
                                 CARA = ( 'HY', 'EPY', 'HZ', 'EPZ', ),
                                 VALE = (  HY,   EPY,   HZ,   EPZ,  ))  )

MA_PO_T3=POST_ELEM(  MODELE=MO_POU_T,
                         MASS_INER=_F(  GROUP_MA = 'MA_SEG2'),
                          CHAM_MATER=CHMAT,    CARA_ELEM=CA_PO_T3     )

val26=( HY * HZ - E_HY * E_HZ )*LONG*RHO
TEST_TABLE(      TABLE=MA_PO_T3,
                            FILTRE=_F(  NOM_PARA = 'LIEU',
                                     VALE_K = 'MA_SEG2'),
                          NOM_PARA='MASSE',
                       VALE=val26,
                         REFERENCE='ANALYTIQUE' )

#
# ------------------------- SECTION CERCLE -----------------------------

CA_PO_E4=AFFE_CARA_ELEM(  MODELE=MO_POU_E,
                        POUTRE=_F(  GROUP_MA = 'MA_SEG2',   SECTION = 'CERCLE',
                                 CARA = 'R',           VALE = R_E) )

MA_PO_E4=POST_ELEM(  MODELE=MO_POU_E,
                         MASS_INER=_F(  GROUP_MA = 'MA_SEG2'),
                          CHAM_MATER=CHMAT,    CARA_ELEM=CA_PO_E4     )

val27=pi * R_E * R_E * LONG * RHO
TEST_TABLE(      TABLE=MA_PO_E4,
                            FILTRE=_F(  NOM_PARA = 'LIEU',
                                     VALE_K = 'MA_SEG2'),
                          NOM_PARA='MASSE',
                           VALE=val27,
                           REFERENCE='ANALYTIQUE' )

CA_PO_E5=AFFE_CARA_ELEM(  MODELE=MO_POU_E,
                        POUTRE=_F(  GROUP_MA = 'MA_SEG2',   SECTION = 'CERCLE',
                                 CARA = ( 'R', 'EP', ), VALE = ( R_E,  EP, )))

MA_PO_E5=POST_ELEM(  MODELE=MO_POU_E,
                         MASS_INER=_F(  GROUP_MA = 'MA_SEG2'),
                          CHAM_MATER=CHMAT,    CARA_ELEM=CA_PO_E5     )

val28=pi * S_C * LONG * RHO
TEST_TABLE(      TABLE=MA_PO_E5,
                            FILTRE=_F(  NOM_PARA = 'LIEU',
                                     VALE_K = 'MA_SEG2'),
                          NOM_PARA='MASSE',
                              VALE=val28,
                           REFERENCE='ANALYTIQUE'     )

CA_PO_T4=AFFE_CARA_ELEM(  MODELE=MO_POU_T,
                        POUTRE=_F(  GROUP_MA = 'MA_SEG2',   SECTION = 'CERCLE',
                                 CARA = 'R',           VALE = R_E) )

MA_PO_T4=POST_ELEM(  MODELE=MO_POU_T,
                         MASS_INER=_F(  GROUP_MA = 'MA_SEG2'),
                          CHAM_MATER=CHMAT,    CARA_ELEM=CA_PO_T4     )

val29=pi * R_E * R_E * LONG * RHO
TEST_TABLE(      TABLE=MA_PO_T4,
                            FILTRE=_F(  NOM_PARA = 'LIEU',
                                     VALE_K = 'MA_SEG2'),
                          NOM_PARA='MASSE',
                           VALE=val29,
                           REFERENCE='ANALYTIQUE' )

CA_PO_T5=AFFE_CARA_ELEM(  MODELE=MO_POU_T,
                        POUTRE=_F(  GROUP_MA = 'MA_SEG2',   SECTION = 'CERCLE',
                                 CARA = ( 'R', 'EP', ), VALE = ( R_E,  EP, )))

MA_PO_T5=POST_ELEM(  MODELE=MO_POU_T,
                         MASS_INER=_F(  GROUP_MA = 'MA_SEG2'),
                          CHAM_MATER=CHMAT,    CARA_ELEM=CA_PO_T5     )

val30=pi * S_C * LONG * RHO
TEST_TABLE(      TABLE=MA_PO_T5,
                            FILTRE=_F(  NOM_PARA = 'LIEU',
                                     VALE_K = 'MA_SEG2'),
                          NOM_PARA='MASSE',
                              VALE=val30,
                           REFERENCE='ANALYTIQUE'     )

#
# ========================= ELEMENT DKT ================================


MO_DKT=AFFE_MODELE(  MAILLAGE=MA,
                  AFFE=_F(  GROUP_MA = 'MA_TRI3',   PHENOMENE = 'MECANIQUE',
                         MODELISATION = 'DKT')  )

MO_DKQ=AFFE_MODELE(  MAILLAGE=MA,
                  AFFE=_F(  GROUP_MA = 'MA_QUA4',   PHENOMENE = 'MECANIQUE',
                         MODELISATION = 'DKT')  )

CA_DKT1=AFFE_CARA_ELEM(  MODELE=MO_DKT,
                       COQUE=_F(  GROUP_MA = 'MA_TRI3',  EPAIS = EP)    )

MA_DKT1=POST_ELEM(  MODELE=MO_DKT,
                        MASS_INER=_F(  GROUP_MA = 'MA_TRI3'),
                         CHAM_MATER=CHMAT,    CARA_ELEM=CA_DKT1       )

val31=EP * 4. * RHO
TEST_TABLE(      TABLE=MA_DKT1,
                            FILTRE=_F(  NOM_PARA = 'LIEU',
                                     VALE_K = 'MA_TRI3'),
                          NOM_PARA='MASSE',
                              VALE=val31,
                           REFERENCE='ANALYTIQUE'   )

TEST_TABLE(      TABLE=MA_DKT1,
                            FILTRE=_F(  NOM_PARA = 'LIEU',
                                     VALE_K = 'MA_TRI3'),
                          NOM_PARA='CDG_X',
                              VALE=3.,
                           REFERENCE='ANALYTIQUE')

TEST_TABLE(      TABLE=MA_DKT1,
                            FILTRE=_F(  NOM_PARA = 'LIEU',
                                     VALE_K = 'MA_TRI3'),
                          NOM_PARA='CDG_Y',
                              VALE=2.,
                           REFERENCE='ANALYTIQUE')

TEST_TABLE(      TABLE=MA_DKT1,
                            FILTRE=_F(  NOM_PARA = 'LIEU',
                                     VALE_K = 'MA_TRI3'),
                          NOM_PARA='CDG_Z',
                              VALE=7.,
                           REFERENCE='ANALYTIQUE')

TEST_TABLE(      TABLE=MA_DKT1,
                            FILTRE=_F(  NOM_PARA = 'LIEU',
                                     VALE_K = 'MA_TRI3'),
                          NOM_PARA='IX_G',
                              VALE=IXX_TRI3,
                           REFERENCE='ANALYTIQUE')

TEST_TABLE(      TABLE=MA_DKT1,
                            FILTRE=_F(  NOM_PARA = 'LIEU',
                                     VALE_K = 'MA_TRI3'),
                          NOM_PARA='IY_G',
                              VALE=IYY_TRI3,
                           REFERENCE='ANALYTIQUE')

TEST_TABLE(      TABLE=MA_DKT1,
                            FILTRE=_F(  NOM_PARA = 'LIEU',
                                     VALE_K = 'MA_TRI3'),
                          NOM_PARA='IZ_G',
                              VALE=IZZ_TRI3,
                           REFERENCE='ANALYTIQUE')

CA_DKQ1=AFFE_CARA_ELEM(  MODELE=MO_DKQ,
                       COQUE=_F(  GROUP_MA = 'MA_QUA4',  EPAIS = EP)    )

MA_DKQ1=POST_ELEM(  MODELE=MO_DKQ,
                        MASS_INER=_F(  GROUP_MA = 'MA_QUA4'),
                         CHAM_MATER=CHMAT,    CARA_ELEM=CA_DKQ1       )

val32=EP * 6. * RHO
TEST_TABLE(      TABLE=MA_DKQ1,
                            FILTRE=_F(  NOM_PARA = 'LIEU',
                                     VALE_K = 'MA_QUA4'),
                          NOM_PARA='MASSE',
                              VALE=val32,
                           REFERENCE='ANALYTIQUE'   )

TEST_TABLE(      TABLE=MA_DKQ1,
                            FILTRE=_F(  NOM_PARA = 'LIEU',
                                     VALE_K = 'MA_QUA4'),
                          NOM_PARA='CDG_X',
                              VALE=2.5,
                           REFERENCE='ANALYTIQUE')

TEST_TABLE(      TABLE=MA_DKQ1,
                            FILTRE=_F(  NOM_PARA = 'LIEU',
                                     VALE_K = 'MA_QUA4'),
                          NOM_PARA='CDG_Y',
                              VALE=2.,
                           REFERENCE='ANALYTIQUE')

TEST_TABLE(      TABLE=MA_DKQ1,
                            FILTRE=_F(  NOM_PARA = 'LIEU',
                                     VALE_K = 'MA_QUA4'),
                          NOM_PARA='CDG_Z',
                              VALE=7.,
                           REFERENCE='ANALYTIQUE')

TEST_TABLE(      TABLE=MA_DKQ1,
                            FILTRE=_F(  NOM_PARA = 'LIEU',
                                     VALE_K = 'MA_QUA4'),
                          NOM_PARA='IX_G',
                              VALE=IXX_QUA4,
                           REFERENCE='ANALYTIQUE')

TEST_TABLE(      TABLE=MA_DKQ1,
                            FILTRE=_F(  NOM_PARA = 'LIEU',
                                     VALE_K = 'MA_QUA4'),
                          NOM_PARA='IY_G',
                              VALE=IYY_QUA4,
                           REFERENCE='ANALYTIQUE')

TEST_TABLE(      TABLE=MA_DKQ1,
                            FILTRE=_F(  NOM_PARA = 'LIEU',
                                     VALE_K = 'MA_QUA4'),
                          NOM_PARA='IZ_G',
                              VALE=IZZ_QUA4,
                           REFERENCE='ANALYTIQUE')

#
# ========================= ELEMENT DST ================================


MO_DST=AFFE_MODELE(  MAILLAGE=MA,
                  AFFE=_F(  GROUP_MA = 'MA_TRI3',   PHENOMENE = 'MECANIQUE',
                         MODELISATION = 'DST')  )

MO_DSQ=AFFE_MODELE(  MAILLAGE=MA,
                  AFFE=_F(  GROUP_MA = 'MA_QUA4',   PHENOMENE = 'MECANIQUE',
                         MODELISATION = 'DST')  )

CA_DST1=AFFE_CARA_ELEM(  MODELE=MO_DST,
                       COQUE=_F(  GROUP_MA = 'MA_TRI3',  EPAIS = EP)    )

MA_DST1=POST_ELEM(  MODELE=MO_DST,
                        MASS_INER=_F(  GROUP_MA = 'MA_TRI3'),
                         CHAM_MATER=CHMAT,    CARA_ELEM=CA_DST1       )

val33=EP * 4. * RHO
TEST_TABLE(      TABLE=MA_DST1,
                            FILTRE=_F(  NOM_PARA = 'LIEU',
                                     VALE_K = 'MA_TRI3'),
                          NOM_PARA='MASSE',
                              VALE=val33,
                           REFERENCE='ANALYTIQUE'   )

TEST_TABLE(      TABLE=MA_DST1,
                            FILTRE=_F(  NOM_PARA = 'LIEU',
                                     VALE_K = 'MA_TRI3'),
                          NOM_PARA='CDG_X',
                              VALE=3.,
                           REFERENCE='ANALYTIQUE')

TEST_TABLE(      TABLE=MA_DST1,
                            FILTRE=_F(  NOM_PARA = 'LIEU',
                                     VALE_K = 'MA_TRI3'),
                          NOM_PARA='CDG_Y',
                              VALE=2.,
                           REFERENCE='ANALYTIQUE')

TEST_TABLE(      TABLE=MA_DST1,
                            FILTRE=_F(  NOM_PARA = 'LIEU',
                                     VALE_K = 'MA_TRI3'),
                          NOM_PARA='CDG_Z',
                              VALE=7.,
                           REFERENCE='ANALYTIQUE')

TEST_TABLE(      TABLE=MA_DST1,
                            FILTRE=_F(  NOM_PARA = 'LIEU',
                                     VALE_K = 'MA_TRI3'),
                          NOM_PARA='IX_G',
                              VALE=IXX_TRI3,
                           REFERENCE='ANALYTIQUE')

TEST_TABLE(      TABLE=MA_DST1,
                            FILTRE=_F(  NOM_PARA = 'LIEU',
                                     VALE_K = 'MA_TRI3'),
                          NOM_PARA='IY_G',
                              VALE=IYY_TRI3,
                           REFERENCE='ANALYTIQUE')

TEST_TABLE(      TABLE=MA_DST1,
                            FILTRE=_F(  NOM_PARA = 'LIEU',
                                     VALE_K = 'MA_TRI3'),
                          NOM_PARA='IZ_G',
                              VALE=IZZ_TRI3,
                           REFERENCE='ANALYTIQUE')

CA_DSQ1=AFFE_CARA_ELEM(  MODELE=MO_DSQ,
                       COQUE=_F(  GROUP_MA = 'MA_QUA4',  EPAIS = EP)    )

MA_DSQ1=POST_ELEM(  MODELE=MO_DSQ,
                        MASS_INER=_F(  GROUP_MA = 'MA_QUA4',
                                    ORIG_INER = (4.,3.,2.,)),
                         CHAM_MATER=CHMAT,    CARA_ELEM=CA_DSQ1       )

val34=EP * 6. * RHO
TEST_TABLE(      TABLE=MA_DSQ1,
                            FILTRE=_F(  NOM_PARA = 'LIEU',
                                     VALE_K = 'MA_QUA4'),
                          NOM_PARA='MASSE',
                              VALE=val34,
                           REFERENCE='ANALYTIQUE'   )

TEST_TABLE(      TABLE=MA_DSQ1,
                            FILTRE=_F(  NOM_PARA = 'LIEU',
                                     VALE_K = 'MA_QUA4'),
                          NOM_PARA='CDG_X',
                              VALE=2.5,
                           REFERENCE='ANALYTIQUE')

TEST_TABLE(      TABLE=MA_DSQ1,
                            FILTRE=_F(  NOM_PARA = 'LIEU',
                                     VALE_K = 'MA_QUA4'),
                          NOM_PARA='CDG_Y',
                              VALE=2.,
                           REFERENCE='ANALYTIQUE')

TEST_TABLE(      TABLE=MA_DSQ1,
                            FILTRE=_F(  NOM_PARA = 'LIEU',
                                     VALE_K = 'MA_QUA4'),
                          NOM_PARA='CDG_Z',
                              VALE=7.,
                           REFERENCE='ANALYTIQUE')

TEST_TABLE(      TABLE=MA_DSQ1,
                            FILTRE=_F(  NOM_PARA = 'LIEU',
                                     VALE_K = 'MA_QUA4'),
                          NOM_PARA='IX_G',
                              VALE=IXX_QUA4,
                           REFERENCE='ANALYTIQUE')

TEST_TABLE(      TABLE=MA_DSQ1,
                            FILTRE=_F(  NOM_PARA = 'LIEU',
                                     VALE_K = 'MA_QUA4'),
                          NOM_PARA='IY_G',
                              VALE=IYY_QUA4,
                           REFERENCE='ANALYTIQUE')

TEST_TABLE(      TABLE=MA_DSQ1,
                            FILTRE=_F(  NOM_PARA = 'LIEU',
                                     VALE_K = 'MA_QUA4'),
                          NOM_PARA='IZ_G',
                              VALE=IZZ_QUA4,
                           REFERENCE='ANALYTIQUE')

TEST_TABLE(      TABLE=MA_DSQ1,
                            FILTRE=_F(  NOM_PARA = 'LIEU',
                                     VALE_K = 'MA_QUA4'),
                          NOM_PARA='IX_P',
                              VALE=IXX_Q4P,
                           REFERENCE='ANALYTIQUE')

TEST_TABLE(      TABLE=MA_DSQ1,
                            FILTRE=_F(  NOM_PARA = 'LIEU',
                                     VALE_K = 'MA_QUA4'),
                          NOM_PARA='IY_P',
                              VALE=IYY_Q4P,
                           REFERENCE='ANALYTIQUE')

TEST_TABLE(      TABLE=MA_DSQ1,
                            FILTRE=_F(  NOM_PARA = 'LIEU',
                                     VALE_K = 'MA_QUA4'),
                          NOM_PARA='IZ_P',
                              VALE=IZZ_Q4P,
                           REFERENCE='ANALYTIQUE')

#
# ========================= ELEMENT Q4G ================================


MO_Q4G=AFFE_MODELE(  MAILLAGE=MA,
                  AFFE=_F(  GROUP_MA = 'MA_QUA4',   PHENOMENE = 'MECANIQUE',
                         MODELISATION = 'Q4G')  )

CA_Q4G1=AFFE_CARA_ELEM(  MODELE=MO_Q4G,
                       COQUE=_F(  GROUP_MA = 'MA_QUA4',  EPAIS = EP)    )

MA_Q4G1=POST_ELEM(  MODELE=MO_Q4G,
                        MASS_INER=_F(  GROUP_MA = 'MA_QUA4'),
                         CHAM_MATER=CHMAT,    CARA_ELEM=CA_Q4G1       )

val35=EP * 6. * RHO
TEST_TABLE(      TABLE=MA_Q4G1,
                            FILTRE=_F(  NOM_PARA = 'LIEU',
                                     VALE_K = 'MA_QUA4'),
                          NOM_PARA='MASSE',
                              VALE=val35,
                           REFERENCE='ANALYTIQUE'   )

TEST_TABLE(      TABLE=MA_Q4G1,
                            FILTRE=_F(  NOM_PARA = 'LIEU',
                                     VALE_K = 'MA_QUA4'),
                          NOM_PARA='CDG_X',
                              VALE=2.5,
                           REFERENCE='ANALYTIQUE' )

TEST_TABLE(      TABLE=MA_Q4G1,
                            FILTRE=_F(  NOM_PARA = 'LIEU',
                                     VALE_K = 'MA_QUA4'),
                          NOM_PARA='CDG_Y',
                              VALE=2.                      )

TEST_TABLE(      TABLE=MA_Q4G1,
                            FILTRE=_F(  NOM_PARA = 'LIEU',
                                     VALE_K = 'MA_QUA4'),
                          NOM_PARA='CDG_Z',
                              VALE=7.,
                           REFERENCE='ANALYTIQUE')

TEST_TABLE(      TABLE=MA_Q4G1,
                            FILTRE=_F(  NOM_PARA = 'LIEU',
                                     VALE_K = 'MA_QUA4'),
                          NOM_PARA='IX_G',
                              VALE=IXX_QUA4,
                           REFERENCE='ANALYTIQUE' )

TEST_TABLE(      TABLE=MA_Q4G1,
                            FILTRE=_F(  NOM_PARA = 'LIEU',
                                     VALE_K = 'MA_QUA4'),
                          NOM_PARA='IY_G',
                              VALE=IYY_QUA4,
                           REFERENCE='ANALYTIQUE')

TEST_TABLE(      TABLE=MA_Q4G1,
                            FILTRE=_F(  NOM_PARA = 'LIEU',
                                     VALE_K = 'MA_QUA4'),
                          NOM_PARA='IZ_G',
                              VALE=IZZ_QUA4,
                           REFERENCE='ANALYTIQUE' )

#
# ========================= ELEMENT POU_C_T ============================


MO_TUYAU=AFFE_MODELE(  MAILLAGE=MA,AFFE=(
                     _F(  MAILLE = ( 'MT1',  'MT3',  'MT5',  'MT7', ),
                            PHENOMENE = 'MECANIQUE',
                            MODELISATION = 'POU_D_T'),
                     _F(  MAILLE = ( 'MT2',  'MT4',  'MT6', ),
                            PHENOMENE = 'MECANIQUE',
                            MODELISATION = 'POU_C_T'))    )

CA_TUY0=AFFE_CARA_ELEM(  MODELE=MO_TUYAU,
                       POUTRE=_F(  GROUP_MA = 'MA_TUYA',  SECTION = 'GENERALE',
                                CARA = ( 'A', 'IY', 'IZ', 'JX', 'AY', 'AZ',),
                                VALE = (  A,   1.,  1.,  1.,  1.,  1., )),DEFI_ARC=(
                       _F(  MAILLE = 'MT2',
                                  CENTRE = ( 3.,  2.,   0.,   )),
                       _F(  GROUP_MA = 'MT4',
                                  CENTRE = ( 4.,  5.,   1.5,  )),
                       _F(  MAILLE = 'MT6',
                                  CENTRE = ( 2.,  6.5,  3.,   )))
                            )

MA_TUY0=POST_ELEM(  MODELE=MO_TUYAU,
                        MASS_INER=_F(  MAILLE = 'MT4'),
                         CHAM_MATER=CHMAT,    CARA_ELEM=CA_TUY0       )

val36=2. * pi * RHO * A * 1.5 / 4.
TEST_TABLE(      TABLE=MA_TUY0,
                            FILTRE=_F(  NOM_PARA = 'LIEU',
                                     VALE_K = 'MT4'),
                          NOM_PARA='MASSE',
                          VALE=val36,
                           REFERENCE='ANALYTIQUE'  )

CA_TUY1=AFFE_CARA_ELEM(  MODELE=MO_TUYAU,
                       POUTRE=_F(  GROUP_MA = 'MA_TUYA',  SECTION = 'GENERALE',
                                CARA = ( 'A', 'IY', 'IZ', 'JX', 'AY', 'AZ',),
                                VALE = (  A,   1.,  1.,  1.,  1.,  1., )),DEFI_ARC=(
                       _F(  MAILLE = 'MT2',
                                  POIN_TANG = ( 4.,  1.,   0.,   )),
                       _F(  MAILLE = 'MT4',
                                  POIN_TANG = ( 4.,  6.5,  0.,   )),
                       _F(  GROUP_MA = 'MT6',
                                  POIN_TANG = ( 4.,  6.5,  5.,   )))
                            )

MA_TUY1=POST_ELEM(  MODELE=MO_TUYAU,
                        MASS_INER=_F(  GROUP_MA = 'MA_TUYA'),
                         CHAM_MATER=CHMAT,    CARA_ELEM=CA_TUY1       )

val37=(2.*pi*RHO*A*1.5/4.) + (2.*pi*RHO*A*1./4.) + (2.*pi*RHO*A*2./4.)  + ( 8.5 * RHO * A )
TEST_TABLE(      TABLE=MA_TUY1,
                            FILTRE=_F(  NOM_PARA = 'LIEU',
                                     VALE_K = 'MA_TUYA'),
                          NOM_PARA='MASSE',
               VALE=val37,
                             REFERENCE='ANALYTIQUE' )

# ====================================================================
# ========================= MAILLAGE PLUS SEVERE =====================
# ====================================================================

MAT_1=DEFI_MATERIAU( ELAS=_F(  E = 2.1E+11,  NU = 0.3,  RHO = 7800.) )

CHMAT_1=AFFE_MATERIAU(  MAILLAGE=MA,
                       AFFE=_F(  TOUT = 'OUI',      MATER = MAT_1) )

# ============================= COQUE DKT ============================
# ====================================================================

MOS_DKT=AFFE_MODELE(   MAILLAGE=MA,
                        AFFE=_F(  GROUP_MA = 'PLAQ',  PHENOMENE = 'MECANIQUE',
                               MODELISATION = 'DKT') )

CA_DKT=AFFE_CARA_ELEM(   MODELE=MOS_DKT,
                           COQUE=_F(  GROUP_MA = 'PLAQ',  EPAIS = 0.01)  )

MASS_DKT=POST_ELEM(  MODELE=MOS_DKT,
                       CHAM_MATER=CHMAT_1,  CARA_ELEM=CA_DKT,
                      MASS_INER=_F(  GROUP_MA = ('PLAQ',)) )

TEST_TABLE(      TABLE=MASS_DKT,
                            FILTRE=_F(  NOM_PARA = 'LIEU',
                                     VALE_K = 'PLAQ'),
                          NOM_PARA='MASSE',
                              VALE=390.,
                           REFERENCE='ANALYTIQUE')

TEST_TABLE(      TABLE=MASS_DKT,
                            FILTRE=_F(  NOM_PARA = 'LIEU',
                                     VALE_K = 'PLAQ'),
                          NOM_PARA='CDG_X',
                              VALE=0.85,
                           REFERENCE='ANALYTIQUE')

TEST_TABLE(      TABLE=MASS_DKT,
                            FILTRE=_F(  NOM_PARA = 'LIEU',
                                     VALE_K = 'PLAQ'),
                          NOM_PARA='CDG_Y',
                              VALE=1.4722432,
                           REFERENCE='ANALYTIQUE' )

TEST_TABLE(      TABLE=MASS_DKT,
                            FILTRE=_F(  NOM_PARA = 'LIEU',
                                     VALE_K = 'PLAQ'),
                          NOM_PARA='CDG_Z',
                              VALE=1.9,
                           REFERENCE='ANALYTIQUE' )

TEST_TABLE(      TABLE=MASS_DKT,
                            FILTRE=_F(  NOM_PARA = 'LIEU',
                                     VALE_K = 'PLAQ'),
                          NOM_PARA='IX_PRIN_G',
                              VALE=32.5,
                           REFERENCE='ANALYTIQUE' )

TEST_TABLE(      TABLE=MASS_DKT,
                            FILTRE=_F(  NOM_PARA = 'LIEU',
                                     VALE_K = 'PLAQ'),
                          NOM_PARA='IY_PRIN_G',
                              VALE=812.5,
                           REFERENCE='ANALYTIQUE' )

TEST_TABLE(      TABLE=MASS_DKT,
                            FILTRE=_F(  NOM_PARA = 'LIEU',
                                     VALE_K = 'PLAQ'),
                          NOM_PARA='IZ_PRIN_G',
                              VALE=845.,
                           REFERENCE='ANALYTIQUE')

TEST_TABLE(      TABLE=MASS_DKT,
                            FILTRE=_F(  NOM_PARA = 'LIEU',
                                     VALE_K = 'PLAQ'),
                          NOM_PARA='ALPHA',
                              VALE=60.,
                           REFERENCE='ANALYTIQUE')

TEST_TABLE(      TABLE=MASS_DKT,
                            FILTRE=_F(  NOM_PARA = 'LIEU',
                                     VALE_K = 'PLAQ'),
                          NOM_PARA='GAMMA',
                              VALE=90.,
                           REFERENCE='ANALYTIQUE')

# ============================= COQUE DST ============================
# ====================================================================

MOS_DST=AFFE_MODELE(   MAILLAGE=MA,
                        AFFE=_F(  GROUP_MA = 'PLAQ',  PHENOMENE = 'MECANIQUE',
                               MODELISATION = 'DST') )

CA_DST=AFFE_CARA_ELEM(   MODELE=MOS_DST,
                           COQUE=_F(  GROUP_MA = 'PLAQ',  EPAIS = 0.01)  )

MASS_DST=POST_ELEM(  MODELE=MOS_DST,
                       CHAM_MATER=CHMAT_1,  CARA_ELEM=CA_DST,
                      MASS_INER=_F(  GROUP_MA = ('PLAQ',)) )

TEST_TABLE(      TABLE=MASS_DST,
                            FILTRE=_F(  NOM_PARA = 'LIEU',
                                     VALE_K = 'PLAQ'),
                          NOM_PARA='MASSE',
                              VALE=390.,
                           REFERENCE='ANALYTIQUE')

TEST_TABLE(      TABLE=MASS_DST,
                            FILTRE=_F(  NOM_PARA = 'LIEU',
                                     VALE_K = 'PLAQ'),
                          NOM_PARA='CDG_X',
                              VALE=0.85,
                           REFERENCE='ANALYTIQUE')

TEST_TABLE(      TABLE=MASS_DST,
                            FILTRE=_F(  NOM_PARA = 'LIEU',
                                     VALE_K = 'PLAQ'),
                          NOM_PARA='CDG_Y',
                              VALE=1.4722432,
                           REFERENCE='ANALYTIQUE')

TEST_TABLE(      TABLE=MASS_DST,
                            FILTRE=_F(  NOM_PARA = 'LIEU',
                                     VALE_K = 'PLAQ'),
                          NOM_PARA='CDG_Z',
                              VALE=1.9,
                           REFERENCE='ANALYTIQUE' )

TEST_TABLE(      TABLE=MASS_DST,
                            FILTRE=_F(  NOM_PARA = 'LIEU',
                                     VALE_K = 'PLAQ'),
                          NOM_PARA='IX_PRIN_G',
                              VALE=32.5,
                           REFERENCE='ANALYTIQUE' )

TEST_TABLE(      TABLE=MASS_DST,
                            FILTRE=_F(  NOM_PARA = 'LIEU',
                                     VALE_K = 'PLAQ'),
                          NOM_PARA='IY_PRIN_G',
                              VALE=812.5,
                           REFERENCE='ANALYTIQUE')

TEST_TABLE(      TABLE=MASS_DST,
                            FILTRE=_F(  NOM_PARA = 'LIEU',
                                     VALE_K = 'PLAQ'),
                          NOM_PARA='IZ_PRIN_G',
                              VALE=845.,
                           REFERENCE='ANALYTIQUE' )

TEST_TABLE(      TABLE=MASS_DST,
                            FILTRE=_F(  NOM_PARA = 'LIEU',
                                     VALE_K = 'PLAQ'),
                          NOM_PARA='ALPHA',
                              VALE=60.,
                           REFERENCE='ANALYTIQUE')

TEST_TABLE(      TABLE=MASS_DST,
                            FILTRE=_F(  NOM_PARA = 'LIEU',
                                     VALE_K = 'PLAQ'),
                          NOM_PARA='GAMMA',
                              VALE=90.,
                           REFERENCE='ANALYTIQUE')

# ============================= COQUE Q4G ============================
# ====================================================================

MOS_Q4G=AFFE_MODELE(   MAILLAGE=MA,
                        AFFE=_F(  GROUP_MA = 'DKT3',  PHENOMENE = 'MECANIQUE',
                               MODELISATION = 'Q4G') )

CA_Q4G=AFFE_CARA_ELEM(   MODELE=MOS_Q4G,
                           COQUE=_F(  GROUP_MA = 'DKT3',  EPAIS = 0.01)  )

MASS_Q4G=POST_ELEM(  MODELE=MOS_Q4G,
                       CHAM_MATER=CHMAT_1,  CARA_ELEM=CA_Q4G,
                      MASS_INER=_F(  GROUP_MA = ('DKT3',)) )

TEST_TABLE(      TABLE=MASS_Q4G,
                            FILTRE=_F(  NOM_PARA = 'LIEU',
                                     VALE_K = 'DKT3'),
                          NOM_PARA='MASSE',
                              VALE=390.,
                           REFERENCE='ANALYTIQUE')

TEST_TABLE(      TABLE=MASS_Q4G,
                            FILTRE=_F(  NOM_PARA = 'LIEU',
                                     VALE_K = 'DKT3'),
                          NOM_PARA='CDG_X',
                              VALE=0.85,
                           REFERENCE='ANALYTIQUE')

TEST_TABLE(      TABLE=MASS_Q4G,
                            FILTRE=_F(  NOM_PARA = 'LIEU',
                                     VALE_K = 'DKT3'),
                          NOM_PARA='CDG_Y',
                              VALE=1.4722432,
                           REFERENCE='ANALYTIQUE')

TEST_TABLE(      TABLE=MASS_Q4G,
                            FILTRE=_F(  NOM_PARA = 'LIEU',
                                     VALE_K = 'DKT3'),
                          NOM_PARA='CDG_Z',
                              VALE=1.9,
                           REFERENCE='ANALYTIQUE')

TEST_TABLE(      TABLE=MASS_Q4G,
                            FILTRE=_F(  NOM_PARA = 'LIEU',
                                     VALE_K = 'DKT3'),
                          NOM_PARA='IX_PRIN_G',
                              VALE=32.5,
                           REFERENCE='ANALYTIQUE')

TEST_TABLE(      TABLE=MASS_Q4G,
                            FILTRE=_F(  NOM_PARA = 'LIEU',
                                     VALE_K = 'DKT3'),
                          NOM_PARA='IY_PRIN_G',
                              VALE=812.5,
                           REFERENCE='ANALYTIQUE')

TEST_TABLE(      TABLE=MASS_Q4G,
                            FILTRE=_F(  NOM_PARA = 'LIEU',
                                     VALE_K = 'DKT3'),
                          NOM_PARA='IZ_PRIN_G',
                              VALE=845.,
                           REFERENCE='ANALYTIQUE')

TEST_TABLE(      TABLE=MASS_Q4G,
                            FILTRE=_F(  NOM_PARA = 'LIEU',
                                     VALE_K = 'DKT3'),
                          NOM_PARA='ALPHA',
                              VALE=60.,
                           REFERENCE='ANALYTIQUE' )

TEST_TABLE(      TABLE=MASS_Q4G,
                            FILTRE=_F(  NOM_PARA = 'LIEU',
                                     VALE_K = 'DKT3'),
                          NOM_PARA='GAMMA',
                              VALE=90.,
                           REFERENCE='ANALYTIQUE' )

# ============================= 3D ============================
# =============================================================

MOS_3D=AFFE_MODELE(   MAILLAGE=MA,
                       AFFE=_F(  GROUP_MA = 'HEX',  PHENOMENE = 'MECANIQUE',
                              MODELISATION = '3D') )

MASS_3D=POST_ELEM(  MODELE=MOS_3D,
                      CHAM_MATER=CHMAT_1,
                     MASS_INER=_F(  GROUP_MA = ('HEX',)) )

TEST_TABLE(      TABLE=MASS_3D,
                            FILTRE=_F(  NOM_PARA = 'LIEU',
                                     VALE_K = 'HEX'),
                          NOM_PARA='MASSE',
                              VALE=78000.,
                           REFERENCE='ANALYTIQUE')

TEST_TABLE(      TABLE=MASS_3D,
                            FILTRE=_F(  NOM_PARA = 'LIEU',
                                     VALE_K = 'HEX'),
                          NOM_PARA='CDG_X',
                              VALE=2.48828,
                           REFERENCE='ANALYTIQUE' )

TEST_TABLE(      TABLE=MASS_3D,
                            FILTRE=_F(  NOM_PARA = 'LIEU',
                                     VALE_K = 'HEX'),
                          NOM_PARA='CDG_Y',
                              VALE=2.48828,
                           REFERENCE='ANALYTIQUE')

TEST_TABLE(      TABLE=MASS_3D,
                            FILTRE=_F(  NOM_PARA = 'LIEU',
                                     VALE_K = 'HEX'),
                          NOM_PARA='CDG_Z',
                              VALE=2.200779,
                           REFERENCE='ANALYTIQUE')

TEST_TABLE(      TABLE=MASS_3D,
                            FILTRE=_F(  NOM_PARA = 'LIEU',
                                     VALE_K = 'HEX'),
                          NOM_PARA='IX_PRIN_G',
                              VALE=19500.,
                           REFERENCE='ANALYTIQUE' )

TEST_TABLE(      TABLE=MASS_3D,
                            FILTRE=_F(  NOM_PARA = 'LIEU',
                                     VALE_K = 'HEX'),
                          NOM_PARA='IY_PRIN_G',
                              VALE=331500.,
                           REFERENCE='ANALYTIQUE')

TEST_TABLE(      TABLE=MASS_3D,
                            FILTRE=_F(  NOM_PARA = 'LIEU',
                                     VALE_K = 'HEX'),
                          NOM_PARA='IZ_PRIN_G',
                              VALE=338000.,
                           REFERENCE='ANALYTIQUE')

TEST_TABLE(      TABLE=MASS_3D,
                            FILTRE=_F(  NOM_PARA = 'LIEU',
                                     VALE_K = 'HEX'),
                          NOM_PARA='ALPHA',
                              VALE=45.,
                           REFERENCE='ANALYTIQUE' )

FIN( )
#
#
