# TITRE TEST DES CONCEPTS DEPENDANT DES MULTIFIBRES
# ======================================================================
# COPYRIGHT (C) 1991 - 2013  EDF R&D                  WWW.CODE-ASTER.ORG
# THIS PROGRAM IS FREE SOFTWARE; YOU CAN REDISTRIBUTE IT AND/OR MODIFY
# IT UNDER THE TERMS OF THE GNU GENERAL PUBLIC LICENSE AS PUBLISHED BY
# THE FREE SOFTWARE FOUNDATION; EITHER VERSION 2 OF THE LICENSE, OR
# (AT YOUR OPTION) ANY LATER VERSION.
#
# THIS PROGRAM IS DISTRIBUTED IN THE HOPE THAT IT WILL BE USEFUL, BUT
# WITHOUT ANY WARRANTY; WITHOUT EVEN THE IMPLIED WARRANTY OF
# MERCHANTABILITY OR FITNESS FOR A PARTICULAR PURPOSE. SEE THE GNU
# GENERAL PUBLIC LICENSE FOR MORE DETAILS.
#
# YOU SHOULD HAVE RECEIVED A COPY OF THE GNU GENERAL PUBLIC LICENSE
# ALONG WITH THIS PROGRAM; IF NOT, WRITE TO EDF R&D CODE_ASTER,
#    1 AVENUE DU GENERAL DE GAULLE, 92141 CLAMART CEDEX, FRANCE.
# ======================================================================

DEBUT(CODE=_F(NIV_PUB_WEB='INTERNET'), DEBUG=_F(SDVERI='OUI'))

# lecture maillage lineique
MAPOU=LIRE_MAILLAGE(UNITE=20,);

# lecture maillage section fibres
MASEC1=LIRE_MAILLAGE(UNITE=18,)


MOPOU=AFFE_MODELE(
    MAILLAGE=MAPOU,
    AFFE=_F(TOUT='OUI', PHENOMENE='MECANIQUE', MODELISATION='POU_D_EM',),
)

spou0 = 4.57E-02


decal = 0.02
tub1 = ( 0.15 ,  0.15); gx1 = 10.0
tub2 = (-0.15 ,  0.15); gx2 = 15.0
tub3 = (-0.15 , -0.15); gx3 = 20.0
tub4 = ( 0.15 , -0.15); gx4 = 25.0
tub5 = ( 0.0  ,  0.0 ); gx5 = 30.0

stub1 = 1.0e-02/4
stub2 = 1.0e-02/4
stub10 = (stub1*8)*3 + (stub2*4)*2
stub20 = (stub1*8)*2 + (stub2*4)*3


spou1  =stub10
spou2  =stub10+stub20

GF=DEFI_GEOM_FIBRE(INFO=2,
    # on s'arrange pour utiliser plusieurs occurrences de SECTION :
    SECTION = (
        _F( GROUP_FIBRE='SEC1',
            MAILLAGE_SECT = MASEC1 , TOUT_SECT = 'OUI',
            COOR_AXE_POUTRE = (0., 1.38889E-02,)),
        _F( GROUP_FIBRE='SEC2',
            MAILLAGE_SECT= MASEC1 , TOUT_SECT = 'OUI',
            COOR_AXE_POUTRE = (0., 1.38889E-02,)),
    ),
    FIBRE = (
        _F( GROUP_FIBRE = 'SACI', CARA = 'SURFACE',
            COOR_AXE_POUTRE = (0.0, 0.0,),
            VALE =(  0.08, -0.15, 2.0E-4,
                    -0.08, -0.15, 2.0E-4,
                     0.10,  0.11, 1.5E-4,
                    -0.10,  0.11, 1.5E-4, ),
        ),
        _F( GROUP_FIBRE = 'TUBE1', CARA = 'SURFACE',
            COOR_AXE_POUTRE = (0.0 , 0.0,),
            VALE =(  decal ,  0.0   , stub1 ,
                     decal ,  decal , stub1 ,
                     0.0   ,  decal , stub1 ,
                    -decal ,  decal , stub1 ,
                    -decal ,  0.0   , stub1 ,
                    -decal , -decal , stub1 ,
                     0.0   , -decal , stub1 ,
                     decal , -decal , stub1 , ),
        ),
        _F( GROUP_FIBRE = 'TUBE2', CARA = 'SURFACE',
            COOR_AXE_POUTRE = (0.0 , 0.0,),
            VALE =(  decal ,  decal , stub2 ,
                    -decal ,  decal , stub2 ,
                    -decal , -decal , stub2 ,
                     decal , -decal , stub2 , ),
        ),
    ),
    ASSEMBLAGE_FIBRE=(
        _F( GROUP_ASSE_FIBRE = 'TUB10',
            GROUP_FIBRE = ('TUBE1','TUBE2', 'TUBE1', 'TUBE2', 'TUBE1',),
            COOR_GROUP_FIBRE = ( tub1[0], tub1[1] ,
                                 tub2[0], tub2[1],
                                 tub3[0], tub3[1],
                                 tub4[0], tub4[1],
                                 tub5[0], tub5[1], ),
            GX_GROUP_FIBRE = ( gx1, gx2, gx3, gx4, gx5, ),
        ),
        _F( GROUP_ASSE_FIBRE = 'TUB20',
            GROUP_FIBRE = ('TUBE2','TUBE1', 'TUBE2', 'TUBE1', 'TUBE2', ),
            COOR_GROUP_FIBRE = ( tub1[0], tub1[1] ,
                                 tub2[0], tub2[1],
                                 tub3[0], tub3[1],
                                 tub4[0], tub4[1],
                                 tub5[0], tub5[1], ),
            GX_GROUP_FIBRE = ( gx1, gx2, gx3, gx4, gx5, ),
        ),
    ),
)
MAGF=CREA_MAILLAGE(GEOM_FIBRE=GF)
#
POUCA=AFFE_CARA_ELEM(MODELE=MOPOU, INFO=1,
    # caractéristiques des sections, orientations et rigidite de torsion
    POUTRE=(
        _F( GROUP_MA=('POUTRE0'), SECTION='GENERALE',
            CARA=('A','IY','IZ','JX'),
            VALE=(spou0,4.657e-4,1.6806e-4,9.77e-5),
        ),
        _F( GROUP_MA=('POUTRE1'), SECTION='GENERALE',
            CARA=('A','IY','IZ','JX'),
            VALE=(spou1,4.657e-4,1.6806e-4,9.77e-5),
        ),
        _F( GROUP_MA=('POUTRE2'), SECTION='GENERALE',
            CARA=('A','IY','IZ','JX'),
            VALE=(spou2,4.657e-4,1.6806e-4,9.77e-5),
        ),
    ),
    ORIENTATION=_F(GROUP_MA=('POUTRE0','POUTRE1','POUTRE2'), CARA='ANGL_VRIL', VALE=0.0,),
    GEOM_FIBRE=GF,
    MULTIFIBRE = (
        _F(MAILLE   = 'M10',     GROUP_FIBRE=('SEC1','SACI',)),
        _F(MAILLE   = 'M20',     GROUP_FIBRE=('SEC2','SACI',)),
        _F(GROUP_MA = 'POUTRE1', GROUP_FIBRE=('TUB10',)),
        _F(MAILLE   = 'M12',     GROUP_FIBRE=('TUB10','TUB20')),
        _F(MAILLE   = 'M22',     GROUP_FIBRE=('TUB10','TUB20')),
    )
)

# LES MATERIAUX
BETON=DEFI_MATERIAU(ELAS=_F(E=2.0E10, NU=0.25,),);
ACIER=DEFI_MATERIAU(ELAS=_F(E=2.1E11, NU=0.30,),);
TUBE =DEFI_MATERIAU(ELAS=_F(E=2.1E11, NU=0.30,),);
#
# relation ELAS par defaut
COMP1=DEFI_COMPOR(
    GEOM_FIBRE=GF,MATER_SECT=BETON,
    MULTIFIBRE=(
        _F(GROUP_FIBRE='SEC1',  MATER=BETON),
        _F(GROUP_FIBRE='SEC2',  MATER=BETON),
        _F(GROUP_FIBRE='SACI',  MATER=ACIER),
        _F(GROUP_FIBRE='TUB10', MATER=TUBE),
        _F(GROUP_FIBRE='TUB20', MATER=TUBE),
    ),
)
#
# LES CHAMPS DE MATERIAUX
CHMAT=AFFE_MATERIAU(INFO=1,
    MAILLAGE=MAPOU,
    AFFE=_F(TOUT='OUI', MATER=(BETON,ACIER,TUBE,)),
    AFFE_COMPOR=_F(GROUP_MA=('POUTRE0','POUTRE1','POUTRE2'),COMPOR=COMP1),
)
# --------------------------------------------------------------------------------------------------
# Test des concepts
unite=DEFI_FICHIER(ACTION='ASSOCIER', FICHIER='./REPE_OUT/GF.concept',ACCES='NEW')
IMPR_CO(CONCEPT=_F(NOM=GF),    ATTRIBUT='OUI', NIVEAU=2, UNITE=unite)
DEFI_FICHIER(ACTION='LIBERER', UNITE=unite)
DETRUIRE(CONCEPT=_F(NOM=unite),INFO=1)

TEST_FICHIER(FICHIER="./REPE_OUT/GF.concept",
             NB_VALE_I=436,
             VALE_CALC_I=342829,
             NB_VALE=1818,
             VALE_CALC=1363.9406660,
             VALE_CALC_K="2a61c79e46b52c293cc1cd6e3a7a17c0",
             EXPR_IGNORE=('IADM','DATE','LTYP','LONO'),
)

#
unite=DEFI_FICHIER(ACTION='ASSOCIER', FICHIER='./REPE_OUT/POUCA.concept',ACCES='NEW')
IMPR_CO(CONCEPT=_F(NOM=POUCA), ATTRIBUT='OUI', NIVEAU=2, UNITE=unite)
DEFI_FICHIER(ACTION='LIBERER', UNITE=unite)
DETRUIRE(CONCEPT=_F(NOM=unite),INFO=1)

TEST_FICHIER(FICHIER="./REPE_OUT/POUCA.concept",
             NB_VALE_I=1424,
             VALE_CALC_I=2110608,
             NB_VALE=2960,
             VALE_CALC=4234.6971548,
             VALE_CALC_K="6f28832b0727ab61cdba687ec9681068",
             EXPR_IGNORE=('IADM','DATE','LTYP','LONO'),
)

#
unite=DEFI_FICHIER(ACTION='ASSOCIER', FICHIER='./REPE_OUT/COMP1.concept',ACCES='NEW')
IMPR_CO(CONCEPT=_F(NOM=COMP1), ATTRIBUT='OUI', NIVEAU=2, UNITE=unite)
DEFI_FICHIER(ACTION='LIBERER', UNITE=unite)
DETRUIRE(CONCEPT=_F(NOM=unite),INFO=1)

TEST_FICHIER(FICHIER="./REPE_OUT/COMP1.concept",
             NB_VALE_I=52,
             VALE_CALC_I=1146,
             NB_VALE=0,
             VALE_CALC=0.0000000000,
             VALE_CALC_K="eeb25fba002d62a44c45bc5d86af6e61",
             EXPR_IGNORE=('IADM','DATE','LTYP','LONO'),
)

#
unite=DEFI_FICHIER(ACTION='ASSOCIER', FICHIER='./REPE_OUT/CHMAT.concept',ACCES='NEW')
IMPR_CO(CONCEPT=_F(NOM=CHMAT), ATTRIBUT='OUI', NIVEAU=2, UNITE=unite)
DEFI_FICHIER(ACTION='LIBERER', UNITE=unite)
DETRUIRE(CONCEPT=_F(NOM=unite),INFO=1)

TEST_FICHIER(FICHIER="./REPE_OUT/CHMAT.concept",
             NB_VALE_I=96,
             VALE_CALC_I=2107665,
             NB_VALE=0,
             VALE_CALC=0.0000000000,
             VALE_CALC_K="70984a02efafe0ab9fe9ec7d79c6e11d",
             EXPR_IGNORE=('IADM','DATE','LTYP','LONO'),
)

#
unite=DEFI_FICHIER(ACTION='ASSOCIER', FICHIER='./REPE_OUT/MAGF.mail',ACCES='NEW')
IMPR_RESU(FORMAT='ASTER',UNITE=unite,RESU=_F(MAILLAGE=MAGF))
DEFI_FICHIER(ACTION='LIBERER', UNITE=unite)
DETRUIRE(CONCEPT=_F(NOM=unite),INFO=1)

TEST_FICHIER(FICHIER="./REPE_OUT/MAGF.mail",
             NB_VALE_I=3115,
             VALE_CALC_I=733926,
             NB_VALE=944,
             VALE_CALC=-5.5800044,
             VALE_CALC_K="00242ab366544985d884fcd5d23d9a75",
             EXPR_IGNORE = ('ASTER'),
)

#
# Impression au format MED du maillage global section
unite=DEFI_FICHIER(ACTION='ASSOCIER', FICHIER='./REPE_OUT/MAGF.med',ACCES='NEW')
IMPR_RESU(FORMAT='MED',UNITE=unite,RESU=_F(MAILLAGE=MAGF))
DEFI_FICHIER(ACTION='LIBERER', UNITE=unite)
DETRUIRE(CONCEPT=_F(NOM=unite),INFO=1)
FIN()
