# ======================================================================
# COPYRIGHT (C) 1991 - 2016  EDF R&D                  WWW.CODE-ASTER.ORG
# THIS PROGRAM IS FREE SOFTWARE; YOU CAN REDISTRIBUTE IT AND/OR MODIFY
# IT UNDER THE TERMS OF THE GNU GENERAL PUBLIC LICENSE AS PUBLISHED BY
# THE FREE SOFTWARE FOUNDATION; EITHER VERSION 2 OF THE LICENSE, OR
# (AT YOUR OPTION) ANY LATER VERSION.
#
# THIS PROGRAM IS DISTRIBUTED IN THE HOPE THAT IT WILL BE USEFUL, BUT
# WITHOUT ANY WARRANTY; WITHOUT EVEN THE IMPLIED WARRANTY OF
# MERCHANTABILITY OR FITNESS FOR A PARTICULAR PURPOSE. SEE THE GNU
# GENERAL PUBLIC LICENSE FOR MORE DETAILS.
#
# YOU SHOULD HAVE RECEIVED A COPY OF THE GNU GENERAL PUBLIC LICENSE
# ALONG WITH THIS PROGRAM; IF NOT, WRITE TO EDF R&D CODE_ASTER,
#    1 AVENUE DU GENERAL DE GAULLE, 92141 CLAMART CEDEX, FRANCE.
# ======================================================================

DEBUT(CODE=_F(NIV_PUB_WEB='INTERNET'),DEBUG=_F(SDVERI='OUI'))

# lecture maillage lineique
MA=LIRE_MAILLAGE(UNITE=20,);

MO=AFFE_MODELE( MAILLAGE=MA,
                AFFE=_F(TOUT='OUI', PHENOMENE='MECANIQUE', MODELISATION='DST',),);

BETON=DEFI_MATERIAU(ELAS=_F(E=3.7272000000E10, NU=0.0,  RHO=2400.0,),)

PLAQUE=AFFE_CARA_ELEM(  MODELE=MO,
                        INFO=1,
                        COQUE = _F( GROUP_MA=('PLA'),
                                    EPAIS = 0.5,
                                    COQUE_NCOU = 4,),
                    );



CHMAT=AFFE_MATERIAU(MAILLAGE=MA,
                    AFFE=_F(TOUT='OUI', MATER=BETON,),
                    );

BLOCAGE=AFFE_CHAR_MECA( MODELE=MO,
                        DDL_IMPO=(_F(GROUP_NO='ENC', DX=0.0, DY=0.0, DZ=0.0, DRX=0.0, DRY=0.0, DRZ=0.0,),
                                 ),);
CHARGE=AFFE_CHAR_MECA(  MODELE=MO,
                        FORCE_NODALE=(_F(GROUP_NO='CHA',FX = 0,FY = 0,FZ = -100.)
                                 ),);

U=MECA_STATIQUE(MODELE=MO,
                   CHAM_MATER=CHMAT,
                   CARA_ELEM=PLAQUE,
                   EXCIT=(_F(CHARGE=BLOCAGE,),
                          _F(CHARGE=CHARGE,),),);

TB=CREA_TABLE(RESU=_F(RESULTAT=U,GROUP_MA='PLA',NOM_CHAM='SIEF_ELGA',TOUT_CMP='OUI',NUME_ORDRE = 1))
IMPR_TABLE(TABLE=TB)

TEST_TABLE(REFERENCE='ANALYTIQUE',
           VALE_CALC=0.204941012,
           VALE_REFE=0.20494101200000001,
           NOM_PARA='COOR_X',
           TABLE=TB,
           FILTRE=(_F(NOM_PARA='POINT',
                      VALE_I=1,),
                   _F(NOM_PARA='SOUS_POINT',
                      VALE_I=1,),
                   ),
           )

TEST_TABLE(REFERENCE='ANALYTIQUE',
           VALE_CALC=0.232004306,
           VALE_REFE=0.23200430599999999,
           NOM_PARA='COOR_X',
           TABLE=TB,
           FILTRE=(_F(NOM_PARA='POINT',
                      VALE_I=1,),
                   _F(NOM_PARA='SOUS_POINT',
                      VALE_I=2,),
                   ),
           )

TEST_TABLE(REFERENCE='ANALYTIQUE',
           VALE_CALC=0.259067600,
           VALE_REFE=0.25906760000000001,
           NOM_PARA='COOR_X',
           TABLE=TB,
           FILTRE=(_F(NOM_PARA='POINT',
                      VALE_I=1,),
                   _F(NOM_PARA='SOUS_POINT',
                      VALE_I=3,),
                   ),
           )

TEST_TABLE(REFERENCE='ANALYTIQUE',
           VALE_CALC=0.259067600,
           VALE_REFE=0.25906760000000001,
           NOM_PARA='COOR_X',
           TABLE=TB,
           FILTRE=(_F(NOM_PARA='POINT',
                      VALE_I=1,),
                   _F(NOM_PARA='SOUS_POINT',
                      VALE_I=4,),
                   ),
           )

TEST_TABLE(REFERENCE='ANALYTIQUE',
           VALE_CALC=0.286130894,
           VALE_REFE=0.28613089400000002,
           NOM_PARA='COOR_X',
           TABLE=TB,
           FILTRE=(_F(NOM_PARA='POINT',
                      VALE_I=1,),
                   _F(NOM_PARA='SOUS_POINT',
                      VALE_I=5,),
                   ),
           )

TEST_TABLE(REFERENCE='ANALYTIQUE',
           VALE_CALC=0.313194187,
           VALE_REFE=0.31319418700000001,
           NOM_PARA='COOR_X',
           TABLE=TB,
           FILTRE=(_F(NOM_PARA='POINT',
                      VALE_I=1,),
                   _F(NOM_PARA='SOUS_POINT',
                      VALE_I=6,),
                   ),
           )

TEST_TABLE(REFERENCE='ANALYTIQUE',
           VALE_CALC=0.313194187,
           VALE_REFE=0.31319418700000001,
           NOM_PARA='COOR_X',
           TABLE=TB,
           FILTRE=(_F(NOM_PARA='POINT',
                      VALE_I=1,),
                   _F(NOM_PARA='SOUS_POINT',
                      VALE_I=7,),
                   ),
           )

TEST_TABLE(REFERENCE='ANALYTIQUE',
           VALE_CALC=0.340257481,
           VALE_REFE=0.34025748099999997,
           NOM_PARA='COOR_X',
           TABLE=TB,
           FILTRE=(_F(NOM_PARA='POINT',
                      VALE_I=1,),
                   _F(NOM_PARA='SOUS_POINT',
                      VALE_I=8,),
                   ),
           )

TEST_TABLE(REFERENCE='ANALYTIQUE',
           VALE_CALC=0.367320775,
           VALE_REFE=0.36732077499999999,
           NOM_PARA='COOR_X',
           TABLE=TB,
           FILTRE=(_F(NOM_PARA='POINT',
                      VALE_I=1,),
                   _F(NOM_PARA='SOUS_POINT',
                      VALE_I=9,),
                   ),
           )

TEST_TABLE(REFERENCE='ANALYTIQUE',
           VALE_CALC=0.367320775,
           VALE_REFE=0.36732077499999999,
           NOM_PARA='COOR_X',
           TABLE=TB,
           FILTRE=(_F(NOM_PARA='POINT',
                      VALE_I=1,),
                   _F(NOM_PARA='SOUS_POINT',
                      VALE_I=10,),
                   ),
           )

TEST_TABLE(REFERENCE='ANALYTIQUE',
           VALE_CALC=0.394384069,
           VALE_REFE=0.394384069,
           NOM_PARA='COOR_X',
           TABLE=TB,
           FILTRE=(_F(NOM_PARA='POINT',
                      VALE_I=1,),
                   _F(NOM_PARA='SOUS_POINT',
                      VALE_I=11,),
                   ),
           )

TEST_TABLE(REFERENCE='ANALYTIQUE',
           VALE_CALC=0.421447363,
           VALE_REFE=0.42144736300000002,
           NOM_PARA='COOR_X',
           TABLE=TB,
           FILTRE=(_F(NOM_PARA='POINT',
                      VALE_I=1,),
                   _F(NOM_PARA='SOUS_POINT',
                      VALE_I=12,),
                   ),
           )

TEST_TABLE(REFERENCE='ANALYTIQUE',
           VALE_CALC=0.490331216,
           VALE_REFE=0.49033121600000001,
           NOM_PARA='COOR_Y',
           TABLE=TB,
           FILTRE=(_F(NOM_PARA='POINT',
                      VALE_I=1,),
                   _F(NOM_PARA='SOUS_POINT',
                      VALE_I=1,),
                   ),
           )

TEST_TABLE(REFERENCE='ANALYTIQUE',
           VALE_CALC=0.443456216,
           VALE_REFE=0.44345621600000001,
           NOM_PARA='COOR_Y',
           TABLE=TB,
           FILTRE=(_F(NOM_PARA='POINT',
                      VALE_I=1,),
                   _F(NOM_PARA='SOUS_POINT',
                      VALE_I=2,),
                   ),
           )

TEST_TABLE(REFERENCE='ANALYTIQUE',
           VALE_CALC=0.396581216,
           VALE_REFE=0.39658121600000001,
           NOM_PARA='COOR_Y',
           TABLE=TB,
           FILTRE=(_F(NOM_PARA='POINT',
                      VALE_I=1,),
                   _F(NOM_PARA='SOUS_POINT',
                      VALE_I=3,),
                   ),
           )

TEST_TABLE(REFERENCE='ANALYTIQUE',
           VALE_CALC=0.396581216,
           VALE_REFE=0.39658121600000001,
           NOM_PARA='COOR_Y',
           TABLE=TB,
           FILTRE=(_F(NOM_PARA='POINT',
                      VALE_I=1,),
                   _F(NOM_PARA='SOUS_POINT',
                      VALE_I=4,),
                   ),
           )

TEST_TABLE(REFERENCE='ANALYTIQUE',
           VALE_CALC=0.349706216,
           VALE_REFE=0.34970621600000001,
           NOM_PARA='COOR_Y',
           TABLE=TB,
           FILTRE=(_F(NOM_PARA='POINT',
                      VALE_I=1,),
                   _F(NOM_PARA='SOUS_POINT',
                      VALE_I=5,),
                   ),
           )

TEST_TABLE(REFERENCE='ANALYTIQUE',
           VALE_CALC=0.302831216,
           VALE_REFE=0.30283121600000001,
           NOM_PARA='COOR_Y',
           TABLE=TB,
           FILTRE=(_F(NOM_PARA='POINT',
                      VALE_I=1,),
                   _F(NOM_PARA='SOUS_POINT',
                      VALE_I=6,),
                   ),
           )

TEST_TABLE(REFERENCE='ANALYTIQUE',
           VALE_CALC=0.302831216,
           VALE_REFE=0.30283121600000001,
           NOM_PARA='COOR_Y',
           TABLE=TB,
           FILTRE=(_F(NOM_PARA='POINT',
                      VALE_I=1,),
                   _F(NOM_PARA='SOUS_POINT',
                      VALE_I=7,),
                   ),
           )

TEST_TABLE(REFERENCE='ANALYTIQUE',
           VALE_CALC=0.255956216,
           VALE_REFE=0.25595621600000001,
           NOM_PARA='COOR_Y',
           TABLE=TB,
           FILTRE=(_F(NOM_PARA='POINT',
                      VALE_I=1,),
                   _F(NOM_PARA='SOUS_POINT',
                      VALE_I=8,),
                   ),
           )

TEST_TABLE(REFERENCE='ANALYTIQUE',
           VALE_CALC=0.209081216,
           VALE_REFE=0.20908121599999999,
           NOM_PARA='COOR_Y',
           TABLE=TB,
           FILTRE=(_F(NOM_PARA='POINT',
                      VALE_I=1,),
                   _F(NOM_PARA='SOUS_POINT',
                      VALE_I=9,),
                   ),
           )

TEST_TABLE(REFERENCE='ANALYTIQUE',
           VALE_CALC=0.209081216,
           VALE_REFE=0.20908121599999999,
           NOM_PARA='COOR_Y',
           TABLE=TB,
           FILTRE=(_F(NOM_PARA='POINT',
                      VALE_I=1,),
                   _F(NOM_PARA='SOUS_POINT',
                      VALE_I=10,),
                   ),
           )

TEST_TABLE(REFERENCE='ANALYTIQUE',
           VALE_CALC=0.162206216,
           VALE_REFE=0.16220621599999999,
           NOM_PARA='COOR_Y',
           TABLE=TB,
           FILTRE=(_F(NOM_PARA='POINT',
                      VALE_I=1,),
                   _F(NOM_PARA='SOUS_POINT',
                      VALE_I=11,),
                   ),
           )

TEST_TABLE(REFERENCE='ANALYTIQUE',
           VALE_CALC=0.115331216,
           VALE_REFE=0.115331216,
           NOM_PARA='COOR_Y',
           TABLE=TB,
           FILTRE=(_F(NOM_PARA='POINT',
                      VALE_I=1,),
                   _F(NOM_PARA='SOUS_POINT',
                      VALE_I=12,),
                   ),
           )

TEST_TABLE(REFERENCE='ANALYTIQUE',
           VALE_CALC=0.058012702,
           VALE_REFE=0.058012701999999999,
           NOM_PARA='COOR_Z',
           TABLE=TB,
           FILTRE=(_F(NOM_PARA='POINT',
                      VALE_I=1,),
                   _F(NOM_PARA='SOUS_POINT',
                      VALE_I=1,),
                   ),
           )

TEST_TABLE(REFERENCE='ANALYTIQUE',
           VALE_CALC=0.089262702,
           VALE_REFE=0.089262701999999999,
           NOM_PARA='COOR_Z',
           TABLE=TB,
           FILTRE=(_F(NOM_PARA='POINT',
                      VALE_I=1,),
                   _F(NOM_PARA='SOUS_POINT',
                      VALE_I=2,),
                   ),
           )

TEST_TABLE(REFERENCE='ANALYTIQUE',
           VALE_CALC=0.120512702,
           VALE_REFE=0.120512702,
           NOM_PARA='COOR_Z',
           TABLE=TB,
           FILTRE=(_F(NOM_PARA='POINT',
                      VALE_I=1,),
                   _F(NOM_PARA='SOUS_POINT',
                      VALE_I=3,),
                   ),
           )

TEST_TABLE(REFERENCE='ANALYTIQUE',
           VALE_CALC=0.120512702,
           VALE_REFE=0.120512702,
           NOM_PARA='COOR_Z',
           TABLE=TB,
           FILTRE=(_F(NOM_PARA='POINT',
                      VALE_I=1,),
                   _F(NOM_PARA='SOUS_POINT',
                      VALE_I=4,),
                   ),
           )

TEST_TABLE(REFERENCE='ANALYTIQUE',
           VALE_CALC=0.151762702,
           VALE_REFE=0.151762702,
           NOM_PARA='COOR_Z',
           TABLE=TB,
           FILTRE=(_F(NOM_PARA='POINT',
                      VALE_I=1,),
                   _F(NOM_PARA='SOUS_POINT',
                      VALE_I=5,),
                   ),
           )

TEST_TABLE(REFERENCE='ANALYTIQUE',
           VALE_CALC=0.183012702,
           VALE_REFE=0.183012702,
           NOM_PARA='COOR_Z',
           TABLE=TB,
           FILTRE=(_F(NOM_PARA='POINT',
                      VALE_I=1,),
                   _F(NOM_PARA='SOUS_POINT',
                      VALE_I=6,),
                   ),
           )

TEST_TABLE(REFERENCE='ANALYTIQUE',
           VALE_CALC=0.183012702,
           VALE_REFE=0.183012702,
           NOM_PARA='COOR_Z',
           TABLE=TB,
           FILTRE=(_F(NOM_PARA='POINT',
                      VALE_I=1,),
                   _F(NOM_PARA='SOUS_POINT',
                      VALE_I=7,),
                   ),
           )

TEST_TABLE(REFERENCE='ANALYTIQUE',
           VALE_CALC=0.214262702,
           VALE_REFE=0.214262702,
           NOM_PARA='COOR_Z',
           TABLE=TB,
           FILTRE=(_F(NOM_PARA='POINT',
                      VALE_I=1,),
                   _F(NOM_PARA='SOUS_POINT',
                      VALE_I=8,),
                   ),
           )

TEST_TABLE(REFERENCE='ANALYTIQUE',
           VALE_CALC=0.245512702,
           VALE_REFE=0.245512702,
           NOM_PARA='COOR_Z',
           TABLE=TB,
           FILTRE=(_F(NOM_PARA='POINT',
                      VALE_I=1,),
                   _F(NOM_PARA='SOUS_POINT',
                      VALE_I=9,),
                   ),
           )

TEST_TABLE(REFERENCE='ANALYTIQUE',
           VALE_CALC=0.245512702,
           VALE_REFE=0.245512702,
           NOM_PARA='COOR_Z',
           TABLE=TB,
           FILTRE=(_F(NOM_PARA='POINT',
                      VALE_I=1,),
                   _F(NOM_PARA='SOUS_POINT',
                      VALE_I=10,),
                   ),
           )

TEST_TABLE(REFERENCE='ANALYTIQUE',
           VALE_CALC=0.276762702,
           VALE_REFE=0.27676270200000003,
           NOM_PARA='COOR_Z',
           TABLE=TB,
           FILTRE=(_F(NOM_PARA='POINT',
                      VALE_I=1,),
                   _F(NOM_PARA='SOUS_POINT',
                      VALE_I=11,),
                   ),
           )

TEST_TABLE(REFERENCE='ANALYTIQUE',
           VALE_CALC=0.308012702,
           VALE_REFE=0.30801270200000003,
           NOM_PARA='COOR_Z',
           TABLE=TB,
           FILTRE=(_F(NOM_PARA='POINT',
                      VALE_I=1,),
                   _F(NOM_PARA='SOUS_POINT',
                      VALE_I=12,),
                   ),
           )

FIN()
