# TITRE VALEUR DE REFERENCE POUR LES ELEMENTS BARRES
#            CONFIGURATION MANAGEMENT OF EDF VERSION
# ======================================================================
# COPYRIGHT (C) 1991 - 2013  EDF R&D                  WWW.CODE-ASTER.ORG
# THIS PROGRAM IS FREE SOFTWARE; YOU CAN REDISTRIBUTE IT AND/OR MODIFY
# IT UNDER THE TERMS OF THE GNU GENERAL PUBLIC LICENSE AS PUBLISHED BY
# THE FREE SOFTWARE FOUNDATION; EITHER VERSION 2 OF THE LICENSE, OR
# (AT YOUR OPTION) ANY LATER VERSION.
#
# THIS PROGRAM IS DISTRIBUTED IN THE HOPE THAT IT WILL BE USEFUL, BUT
# WITHOUT ANY WARRANTY; WITHOUT EVEN THE IMPLIED WARRANTY OF
# MERCHANTABILITY OR FITNESS FOR A PARTICULAR PURPOSE. SEE THE GNU
# GENERAL PUBLIC LICENSE FOR MORE DETAILS.
#
# YOU SHOULD HAVE RECEIVED A COPY OF THE GNU GENERAL PUBLIC LICENSE
# ALONG WITH THIS PROGRAM; IF NOT, WRITE TO EDF R&D CODE_ASTER,
#    1 AVENUE DU GENERAL DE GAULLE, 92141 CLAMART CEDEX, FRANCE.
# ======================================================================

DEBUT(CODE=_F(NOM='ZZZZ234B',NIV_PUB_WEB='INTERNET'),
      DEBUG=_F(SDVERI='OUI'))

# Fonction de calcul de l'erreur
CoefRef = 1.0E-05


MA = LIRE_MAILLAGE(INFO=2);

MATE = DEFI_MATERIAU(ELAS=_F(E=2.1E11,NU=0.3),)

CHMAT = AFFE_MATERIAU(MAILLAGE=MA,
                      AFFE = _F(TOUT='OUI',MATER=MATE,),)


LIS_INST =DEFI_LIST_REEL(DEBUT=0.0,INTERVALLE=(_F(JUSQU_A=1.0,NOMBRE=1,),),)

#-------------------------------------------------------------------------------------
# --> BARRE 3D
# -------------

MO_BAR = AFFE_MODELE(MAILLAGE=MA,
                     AFFE=_F(TOUT='OUI',PHENOMENE='MECANIQUE',MODELISATION='BARRE'),)

CA_BAR = AFFE_CARA_ELEM(  BARRE=_F( GROUP_MA='TOUT',
                                  SECTION='CERCLE',CARA= 'R',VALE=0.02,),
                                  MODELE=MO_BAR)

CL_BAR = AFFE_CHAR_MECA(MODELE=MO_BAR,
                   DDL_IMPO=(
                       _F(GROUP_NO='A',DX=0., DY=0., DZ=0.,),
                       _F(GROUP_NO='B',       DY=0., DZ=0.,),
))

CH_BAR = AFFE_CHAR_MECA(MODELE=MO_BAR,
                        FORCE_NODALE=_F(GROUP_NO='B',
                                        FX=-1000.,),)

RE_BAR=STAT_NON_LINE(MODELE     = MO_BAR,
                     CHAM_MATER = CHMAT,
                     CARA_ELEM  = CA_BAR,
                     EXCIT      = (_F(CHARGE = CL_BAR),
                                   _F(CHARGE = CH_BAR),),
     COMP_INCR  =  _F(RELATION   = 'ELAS',
                                     GROUP_MA    = 'TOUT',),
                     INCREMENT = _F(LIST_INST = LIS_INST,),
                     CONVERGENCE = _F(RESI_REFE_RELA=1.0,FORC_REFE =(CoefRef,CoefRef),),
);

TB_BAR = RECU_TABLE(CO=RE_BAR,NOM_PARA=('ITER_GLOB'),)

IMPR_TABLE(TABLE=TB_BAR)
TEST_TABLE(CRITERE='ABSOLU',
           VALE_CALC_I=1,
           NOM_PARA='ITER_GLOB',
           TABLE=TB_BAR,
           FILTRE=_F(NOM_PARA='NUME_ORDRE',
                     VALE_I=1,),
           )

TEST_RESU(RESU=_F(GROUP_NO='B',
                  INST=1.0,
                  RESULTAT=RE_BAR,
                  NOM_CHAM='DEPL',
                  NOM_CMP='DX',
                  VALE_CALC=-3.7894034069499E-06,
                  ),
          )

# --- validation CREA_CHAMP/'NEUT' aux points de GAUSS  ---

FFDEUX = FORMULE(NOM_PARA=('X1'),VALE='2*X1')

FELG01=CREA_CHAMP(
   OPERATION='AFFE', TYPE_CHAM='ELGA_NEUT_F',
   MODELE=MO_BAR,  PROL_ZERO='OUI',   INFO=1,
   AFFE=_F( TOUT='OUI', NOM_CMP = ('X1'), VALE_F = FFDEUX,),)

NELG10=CREA_CHAMP(NUME_ORDRE = 1,
   OPERATION='EXTR', TYPE_CHAM='ELGA_SIEF_R',RESULTAT=RE_BAR, NOM_CHAM='SIEF_ELGA')

NELG11=CREA_CHAMP(
   OPERATION='ASSE', TYPE_CHAM='ELGA_NEUT_R',
   MODELE=MO_BAR,  PROL_ZERO='OUI',
   ASSE=_F( TOUT='OUI',   CHAM_GD = NELG10, NOM_CMP = ('N'), NOM_CMP_RESU = ('X1'),), )

NELG12=CREA_CHAMP(
   OPERATION='AFFE', TYPE_CHAM='ELGA_NEUT_R',
   MODELE=MO_BAR,  PROL_ZERO='OUI',   INFO=1,
   AFFE=_F( TOUT='OUI', NOM_CMP = ('X1'), VALE =1000.0,),)

NELG01=CREA_CHAMP(
   OPERATION='ASSE', TYPE_CHAM='ELGA_NEUT_R',   MODELE=MO_BAR,
   ASSE=(_F( TOUT='OUI', CHAM_GD = NELG11, CUMUL='OUI',COEF_R= 1.0),
         _F( TOUT='OUI', CHAM_GD = NELG12, CUMUL='OUI',COEF_R= -1.0),),)

VELG01=CREA_CHAMP(
   OPERATION='EVAL', TYPE_CHAM='ELGA_NEUT_R', INFO=1,
   CHAM_F=FELG01,  CHAM_PARA=NELG01   )

SELG01=CREA_CHAMP(
   OPERATION='ASSE', TYPE_CHAM='ELGA_SIEF_R',
   MODELE=MO_BAR,  PROL_ZERO='OUI',
   ASSE=_F( TOUT='OUI',   CHAM_GD = VELG01, NOM_CMP = ('X1',  ), NOM_CMP_RESU = ('N'),), )

TEST_RESU(CHAM_ELEM=_F(REFERENCE='ANALYTIQUE',
                       POINT=1,
                       NOM_CMP='N',
                       MAILLE='M1',
                       CHAM_GD=SELG01,
                       VALE_CALC=-4.00000000E+03,
                       VALE_REFE=-4000.0,),
          )

# --- validation CREA_CHAMP/'NEUT' aux noeuds par element  ---
FELN01=CREA_CHAMP(
   OPERATION='AFFE', TYPE_CHAM='ELNO_NEUT_F',
   MODELE=MO_BAR,  PROL_ZERO='OUI',
   AFFE=_F( TOUT='OUI', NOM_CMP = ('X1'), VALE_F = FFDEUX,),)

NELN10=CREA_CHAMP(MODELE=MO_BAR,
   OPERATION='DISC', TYPE_CHAM='ELNO_SIEF_R',CHAM_GD=NELG10)

NELN11=CREA_CHAMP(
   OPERATION='ASSE', TYPE_CHAM='ELNO_NEUT_R',
   MODELE=MO_BAR,  PROL_ZERO='OUI',
   ASSE=_F( TOUT='OUI',   CHAM_GD = NELN10, NOM_CMP = ('N'), NOM_CMP_RESU = ('X1'),), )

NELN12=CREA_CHAMP(
   OPERATION='AFFE', TYPE_CHAM='ELNO_NEUT_R',
   MODELE=MO_BAR,  PROL_ZERO='OUI',   INFO=1,
   AFFE=_F( TOUT='OUI', NOM_CMP = ('X1'), VALE =(1000.0),),)

NELN01=CREA_CHAMP(
   OPERATION='ASSE', TYPE_CHAM='ELNO_NEUT_R',   MODELE=MO_BAR,
   ASSE=(_F( TOUT='OUI', CHAM_GD = NELN11, CUMUL='OUI',COEF_R= 1.0),
         _F( TOUT='OUI', CHAM_GD = NELN12, CUMUL='OUI',COEF_R= -1.0),),)

VELN01=CREA_CHAMP(
   OPERATION='EVAL', TYPE_CHAM='ELNO_NEUT_R', INFO=1,
   CHAM_F=FELN01,  CHAM_PARA=NELN01   )

SELN01=CREA_CHAMP(
   OPERATION='ASSE', TYPE_CHAM='ELNO_SIEF_R',
   MODELE=MO_BAR,  PROL_ZERO='OUI',
   ASSE=_F( TOUT='OUI',   CHAM_GD = VELN01, NOM_CMP = ('X1'), NOM_CMP_RESU = ('N'),), )

TEST_RESU(CHAM_ELEM=_F(NOEUD='N2',
                       REFERENCE='ANALYTIQUE',
                       NOM_CMP='N',
                       MAILLE='M1',
                       CHAM_GD=SELN01,
                       VALE_CALC=-4.00000000E+03,
                       VALE_REFE=-4000.0,),
          )

# --- validation CREA_CHAMP/'NEUT' aux noeuds  ---
FNOE01=CREA_CHAMP(
   OPERATION='AFFE', TYPE_CHAM='NOEU_NEUT_F',
   MODELE=MO_BAR,
   AFFE=_F( TOUT='OUI', NOM_CMP = ('X1'), VALE_F = FFDEUX,),)

NNOE10=CREA_CHAMP(MODELE=MO_BAR,
   OPERATION='DISC', TYPE_CHAM='NOEU_SIEF_R',CHAM_GD=NELN10)

NNOE11=CREA_CHAMP(
   OPERATION='ASSE', TYPE_CHAM='NOEU_NEUT_R',
   MODELE=MO_BAR,
   ASSE=_F( TOUT='OUI',   CHAM_GD = NNOE10, NOM_CMP = ('N'), NOM_CMP_RESU = ('X1'),), )

NNOE12=CREA_CHAMP(
   OPERATION='AFFE', TYPE_CHAM='NOEU_NEUT_R',
   MODELE=MO_BAR,     INFO=1,
   AFFE=_F( TOUT='OUI', NOM_CMP = ('X1'), VALE =(1000.0),),)

NNOE01=CREA_CHAMP(
   OPERATION='ASSE', TYPE_CHAM='NOEU_NEUT_R',   MODELE=MO_BAR,
   ASSE=(_F( TOUT='OUI', CHAM_GD = NNOE11, CUMUL='OUI',COEF_R= 1.0),
         _F( TOUT='OUI', CHAM_GD = NNOE12, CUMUL='OUI',COEF_R= -1.0),),)

VNOE01=CREA_CHAMP(
   OPERATION='EVAL', TYPE_CHAM='NOEU_NEUT_R', INFO=1,
   CHAM_F=FNOE01,  CHAM_PARA=NNOE01   )

SNOE01=CREA_CHAMP(
   OPERATION='ASSE', TYPE_CHAM='NOEU_SIEF_R',
   MODELE=MO_BAR,
   ASSE=_F( TOUT='OUI',   CHAM_GD = VNOE01, NOM_CMP = ('X1',  ), NOM_CMP_RESU = ('N'),), )


TEST_RESU(CHAM_NO=_F(NOEUD='N2',
                     REFERENCE='ANALYTIQUE',
                     NOM_CMP='N',
                     CHAM_GD=SNOE01,
                     VALE_CALC=-4.00000000E+03,
                     VALE_REFE=-4000.0,),
          )

FIN()
