# TITRE VALIDATION INFORMATIQUE DE DEFI_FOND_FISS
# ======================================================================
# COPYRIGHT (C) 1991 - 2012  EDF R&D                  WWW.CODE-ASTER.ORG
# THIS PROGRAM IS FREE SOFTWARE; YOU CAN REDISTRIBUTE IT AND/OR MODIFY  
# IT UNDER THE TERMS OF THE GNU GENERAL PUBLIC LICENSE AS PUBLISHED BY  
# THE FREE SOFTWARE FOUNDATION; EITHER VERSION 2 OF THE LICENSE, OR     
# (AT YOUR OPTION) ANY LATER VERSION.                                                    
#                                                                       
# THIS PROGRAM IS DISTRIBUTED IN THE HOPE THAT IT WILL BE USEFUL, BUT   
# WITHOUT ANY WARRANTY; WITHOUT EVEN THE IMPLIED WARRANTY OF            
# MERCHANTABILITY OR FITNESS FOR A PARTICULAR PURPOSE. SEE THE GNU      
# GENERAL PUBLIC LICENSE FOR MORE DETAILS.                              
#                                                                       
# YOU SHOULD HAVE RECEIVED A COPY OF THE GNU GENERAL PUBLIC LICENSE     
# ALONG WITH THIS PROGRAM; IF NOT, WRITE TO EDF R&D CODE_ASTER,         
#    1 AVENUE DU GENERAL DE GAULLE, 92141 CLAMART CEDEX, FRANCE.        
# ======================================================================
# CAS D'UN FOND EN QUART DE CERCLE DEBOUCHANT

DEBUT(CODE=_F(NOM='ZZZZ314E',NIV_PUB_WEB='INTERNET'),PAR_LOT='NON',DEBUG=_F(SDVERI='OUI'))

M=LIRE_MAILLAGE(FORMAT='MED',)

FISS0=DEFI_FOND_FISS(MAILLAGE=M,
                     FOND_FISS=_F(GROUP_MA = 'LFF1',),
                     LEVRE_SUP=_F(GROUP_MA = 'LEVINFS'),
                     LEVRE_INF=_F(GROUP_MA = 'LEVINF1'),
                    );

basefond0=FISS0.sdj.BASEFOND.get()

ndfon=[]
# listes des composantes des vecteurs normaux au plan de la fissure
vnorX=[]
vnorY=[]
vnorZ=[]
# listes des composantes des vecteurs de direction de propagation de
# la fissure
vdirX=[]
vdirY=[]
vdirZ=[]

for i in range(0,len(basefond0)/6):
  ndfon.append(i+1)
  vnorX.append(basefond0[6*i])
  vnorY.append(basefond0[6*i+1])
  vnorZ.append(basefond0[6*i+2])
  vdirX.append(basefond0[6*i+3])
  vdirY.append(basefond0[6*i+4])
  vdirZ.append(basefond0[6*i+5])

TABL0=CREA_TABLE(LISTE=(_F(LISTE_I=ndfon,PARA='ND_FOND'),
                        _F(LISTE_R=vnorX,PARA='VNORX'),
                        _F(LISTE_R=vnorY,PARA='VNORY') ,
                        _F(LISTE_R=vnorZ,PARA='VNORZ'),
                        _F(LISTE_R=vdirX,PARA='VDIRX'),
                        _F(LISTE_R=vdirY,PARA='VDIRY') ,
                        _F(LISTE_R=vdirZ,PARA='VDIRZ'),
                        ),);

# Calcul des valeurs analytiques des vecteurs de direction de
# propagation de fissure :
# Comme la fissure est un quart de cercle ayant pour centre l'origine du repere:
# les valeurs analytiques des vecteurs de direction de
# propagation de la fissure sont les coordonnees des noeuds du fond

vdirX_ana=[]
vdirY_ana=[]
vdirZ_ana=[]

# Noms des noeuds du maillage
t_noms_noeuds_maillage = aster.getvectjev('M'.ljust(8)+'.NOMNOE')
l_noms_noeuds_maillage = list(t_noms_noeuds_maillage)

l_numeros_noeuds_fissure = []
# Noms des noeuds du fond
l_noms_noeuds_fissure=FISS0.sdj.FOND_NOEU.get()

for i in range(0,len(ndfon)):
  nom = l_noms_noeuds_fissure[i]
  index = l_noms_noeuds_maillage.index(nom)
  l_numeros_noeuds_fissure.append(index)

  coor=aster.getvectjev('M'.ljust(8)+'.COORDO    .VALE        ',
                    l_numeros_noeuds_fissure[i]*3,3)
  norme=sqrt( coor[0]**2+coor[1]**2+coor[2]**2 )

  vdirX_ana.append(coor[0]/norme)
  vdirY_ana.append(coor[1]/norme)
  vdirZ_ana.append(coor[2]/norme)


for i in range(0,len(ndfon)):

   TEST_TABLE(CRITERE='ABSOLU',
              REFERENCE='ANALYTIQUE',
              VALE_CALC= 0.00000000E+00,
              VALE_REFE=0.0,
              NOM_PARA='VNORX',
              TABLE=TABL0,
              FILTRE=_F(NOM_PARA='ND_FOND',
                        VALE_I=i+1,),
              )

   TEST_TABLE(CRITERE='ABSOLU',
              REFERENCE='ANALYTIQUE',
              VALE_CALC= 0.00000000E+00,
              VALE_REFE=0.0,
              NOM_PARA='VNORY',
              TABLE=TABL0,
              FILTRE=_F(NOM_PARA='ND_FOND',
                        VALE_I=i+1,),
              )

   TEST_TABLE(CRITERE='ABSOLU',
              REFERENCE='ANALYTIQUE',
              VALE_CALC=1.000000000,
              VALE_REFE=1.0,
              NOM_PARA='VNORZ',
              TABLE=TABL0,
              FILTRE=_F(NOM_PARA='ND_FOND',
                        VALE_I=i+1,),
              )

   TEST_TABLE(CRITERE='ABSOLU',
              REFERENCE='ANALYTIQUE',
              VALE_CALC=vdirX_ana[i],
              VALE_REFE=vdirX_ana[i],
              NOM_PARA='VDIRX',
              TABLE=TABL0,
              FILTRE=_F(NOM_PARA='ND_FOND',
                        VALE_I=i+1,),
              )

   TEST_TABLE(CRITERE='ABSOLU',
              REFERENCE='ANALYTIQUE',
              VALE_CALC=vdirY_ana[i],
              VALE_REFE=vdirY_ana[i],
              NOM_PARA='VDIRY',
              TABLE=TABL0,
              FILTRE=_F(NOM_PARA='ND_FOND',
                        VALE_I=i+1,),
              )

   TEST_TABLE(CRITERE='ABSOLU',
              REFERENCE='ANALYTIQUE',
              VALE_CALC=vdirZ_ana[i],
              VALE_REFE=vdirZ_ana[i],
              NOM_PARA='VDIRZ',
              TABLE=TABL0,
              FILTRE=_F(NOM_PARA='ND_FOND',
                        VALE_I=i+1,),
              )

FIN();
