# ======================================================================
# COPYRIGHT (C) 1991 - 2016  EDF R&D                  WWW.CODE-ASTER.ORG
# THIS PROGRAM IS FREE SOFTWARE; YOU CAN REDISTRIBUTE IT AND/OR MODIFY
# IT UNDER THE TERMS OF THE GNU GENERAL PUBLIC LICENSE AS PUBLISHED BY
# THE FREE SOFTWARE FOUNDATION; EITHER VERSION 2 OF THE LICENSE, OR
# (AT YOUR OPTION) ANY LATER VERSION.
#
# THIS PROGRAM IS DISTRIBUTED IN THE HOPE THAT IT WILL BE USEFUL, BUT
# WITHOUT ANY WARRANTY; WITHOUT EVEN THE IMPLIED WARRANTY OF
# MERCHANTABILITY OR FITNESS FOR A PARTICULAR PURPOSE. SEE THE GNU
# GENERAL PUBLIC LICENSE FOR MORE DETAILS.
#
# YOU SHOULD HAVE RECEIVED A COPY OF THE GNU GENERAL PUBLIC LICENSE
# ALONG WITH THIS PROGRAM; IF NOT, WRITE TO EDF R&D CODE_ASTER,
#    1 AVENUE DU GENERAL DE GAULLE, 92141 CLAMART CEDEX, FRANCE.
# ======================================================================

DEBUT(CODE=_F(NIV_PUB_WEB='INTERNET'),
      DEBUG=_F(SDVERI='OUI'),
      IGNORE_ALARM=('MODELISA4_9'))
#
# LES MAILLES APLATIES SONT DUES AUX ELEMENTS DISCRETS DE TYPE SEG2 DONT LES
# NOEUDS SONT CONFONDUS
#

MAILLAGE=LIRE_MAILLAGE(FORMAT='MED', );
MAILLAGE=DEFI_GROUP(reuse =MAILLAGE,
                    MAILLAGE=MAILLAGE,
                    CREA_GROUP_NO=_F(GROUP_MA=('SRADIER','HRADIER'),),);

STICKMOD=AFFE_MODELE(  MAILLAGE=MAILLAGE,AFFE=(
                      _F(  GROUP_MA = 'POU_D_T',PHENOMENE = 'MECANIQUE',
                             MODELISATION = 'POU_D_T'),
                           _F(  GROUP_MA = 'MASSES',  PHENOMENE = 'MECANIQUE',
                             MODELISATION = 'DIS_TR'),
                           _F(  GROUP_MA = 'LIAI_NOE',PHENOMENE = 'MECANIQUE',
                             MODELISATION = 'DIS_TR'),
                           _F(  GROUP_MA = 'VRADIER',PHENOMENE = 'MECANIQUE',
                             MODELISATION = '3D'),
                           _F(  GROUP_MA = 'PRADIER',PHENOMENE = 'MECANIQUE',
                             MODELISATION = 'DIS_T'),
                           _F(  GROUP_MA = 'LRADIER',PHENOMENE = 'MECANIQUE',
                             MODELISATION = 'DIS_T'),
                           #_F(  GROUP_MA = 'SRADIER',PHENOMENE = 'MECANIQUE',
                           #  MODELISATION = 'DST')
                                                  )
                        );

# ----------------------------------------------------------------------
#  DEFINITION DES MATERIAUX

MAT_1=DEFI_MATERIAU(  ELAS=_F(
                         E = 4.000000000E+10,NU = 1.494252874E-01,
                         RHO = 0.000000000E+00,ALPHA = 0.000000000E+00) );

MAT_2=DEFI_MATERIAU(  ELAS=_F(
                         E = 4.000000000E+10,NU = 1.494252874E-01,
                         RHO = 2.500000000E+03,ALPHA = 0.000000000E+00) );

MAT_3=DEFI_MATERIAU(  ELAS=_F(
                         E = 4.000000000E+10,NU = 1.494252874E-01,
                         RHO = 2.500000000E+00,ALPHA = 0.000000000E+00) );

#

CHAMPMAT=AFFE_MATERIAU(   MAILLAGE=MAILLAGE,AFFE=(
                     _F(  GROUP_MA = 'MAT_1',    MATER = MAT_1),
                          _F(  GROUP_MA = 'MAT_2',    MATER = MAT_2),
                          _F(  GROUP_MA = 'VRADIER',   MATER = MAT_2),
                          #_F(  GROUP_MA = 'SRADIER',   MATER = MAT_3)
                                                                     )
                           );

#
# ----------------------------------------------------------------------
# AFFECTATION DES CARACTERISTIQUES ELEMENTAIRES

CARA_ELE=AFFE_CARA_ELEM( MODELE=STICKMOD,
            #COQUE=_F( GROUP_MA = 'SRADIER', EPAIS = 0.001),
            POUTRE=(

          _F(  GROUP_MA = 'SEC_2',
             SECTION = 'GENERALE',
              CARA = ('A', 'IZ', 'IY', 'AY', 'AZ', 'JX',
                     'EZ', 'EY', 'RY', 'RZ', 'RT', ),
              VALE = ( 8.700000000E+01, 2.756900000E+04, 2.756900000E+04,
                      2.000000000E+00, 2.000000000E+00, 1.000000000E+07,
                      0.000000000E+00, 0.000000000E+00, 1.000000000E+00,
                      1.000000000E+00, 1.000000000E+00, )),
          _F(  GROUP_MA = 'SEC_3',
             SECTION = 'GENERALE',
              CARA = ('A', 'IZ', 'IY', 'AY', 'AZ', 'JX',
                     'EZ', 'EY', 'RY', 'RZ', 'RT', ),
              VALE = ( 1.696000000E+02, 4.294200000E+04, 4.294200000E+04,
                      2.000000000E+00, 2.000000000E+00, 1.000000000E+07,
                      0.000000000E+00, 0.000000000E+00, 1.000000000E+00,
                      1.000000000E+00, 1.000000000E+00, )),
          _F(  GROUP_MA = 'SEC_4',
             SECTION = 'GENERALE',
              CARA = ('A', 'IZ', 'IY', 'AY', 'AZ', 'JX',
                     'EZ', 'EY', 'RY', 'RZ', 'RT', ),
              VALE = ( 9.400000000E+01, 1.250000000E+04, 1.250000000E+04,
                      7.705000000E+01, 7.705000000E+01, 1.000000000E+07,
                      0.000000000E+00, 0.000000000E+00, 1.000000000E+00,
                      1.000000000E+00, 1.000000000E+00, )),
          _F(  GROUP_MA = 'SEC_5',
             SECTION = 'GENERALE',
              CARA = ('A', 'IZ', 'IY', 'AY', 'AZ', 'JX',
                     'EZ', 'EY', 'RY', 'RZ', 'RT', ),
              VALE = ( 4.852000000E+01, 6.522400000E+03, 6.142000000E+03,
                      5.720000000E+00, 3.540000000E+00, 1.000000000E+06,
                      0.000000000E+00, 0.000000000E+00, 1.000000000E+00,
                      1.000000000E+00, 1.000000000E+00, )),
          _F(  GROUP_MA = 'SEC_6',
             SECTION = 'GENERALE',
              CARA = ('A', 'IZ', 'IY', 'AY', 'AZ', 'JX',
                     'EZ', 'EY', 'RY', 'RZ', 'RT', ),
              VALE = ( 4.852000000E+01, 6.522400000E+03, 6.142000000E+03,
                      6.800000000E+00, 3.950000000E+00, 1.000000000E+06,
                      0.000000000E+00, 0.000000000E+00, 1.000000000E+00,
                      1.000000000E+00, 1.000000000E+00, )),
          _F(  GROUP_MA = 'SEC_7',
             SECTION = 'GENERALE',
              CARA = ('A', 'IZ', 'IY', 'AY', 'AZ', 'JX',
                     'EZ', 'EY', 'RY', 'RZ', 'RT', ),
              VALE = ( 2.328000000E+02, 1.095800000E+04, 2.128000000E+04,
                      4.950000000E+00, 1.870000000E+00, 1.000000000E+07,
                      0.000000000E+00, 0.000000000E+00, 1.000000000E+00,
                      1.000000000E+00, 1.000000000E+00, )),
          _F(  GROUP_MA = 'SEC_8',
             SECTION = 'GENERALE',
              CARA = ('A', 'IZ', 'IY', 'AY', 'AZ', 'JX',
                     'EZ', 'EY', 'RY', 'RZ', 'RT', ),
              VALE = ( 2.277000000E+02, 2.300000000E+04, 2.107900000E+04,
                      4.550000000E+00, 3.340000000E+00, 1.000000000E+07,
                      0.000000000E+00, 0.000000000E+00, 1.000000000E+00,
                      1.000000000E+00, 1.000000000E+00, )),
          _F(  GROUP_MA = 'SEC_9',
             SECTION = 'GENERALE',
              CARA = ('A', 'IZ', 'IY', 'AY', 'AZ', 'JX',
                     'EZ', 'EY', 'RY', 'RZ', 'RT', ),
              VALE = ( 1.490000000E+01, 1.900000000E+02, 1.500000000E+02,
                      1.860000000E+00, 1.770000000E+00, 1.000000000E+05,
                      0.000000000E+00, 0.000000000E+00, 1.000000000E+00,
                      1.000000000E+00, 1.000000000E+00, )),
          _F(  GROUP_MA = 'SEC_10',
             SECTION = 'GENERALE',
              CARA = ('A', 'IZ', 'IY', 'AY', 'AZ', 'JX',
                     'EZ', 'EY', 'RY', 'RZ', 'RT', ),
              VALE = ( 1.430000000E+01, 1.200000000E+02, 1.170000000E+02,
                      3.570000000E+00, 2.200000000E+00, 1.000000000E+05,
                      0.000000000E+00, 0.000000000E+00, 1.000000000E+00,
                      1.000000000E+00, 1.000000000E+00, )),
          _F(  GROUP_MA = 'SEC_11',
             SECTION = 'GENERALE',
              CARA = ('A', 'IZ', 'IY', 'AY', 'AZ', 'JX',
                     'EZ', 'EY', 'RY', 'RZ', 'RT', ),
              VALE = ( 5.348000000E+01, 5.486000000E+02, 5.486000000E+02,
                      7.640000000E+01, 7.640000000E+01, 1.000000000E+05,
                      0.000000000E+00, 0.000000000E+00, 1.000000000E+00,
                      1.000000000E+00, 1.000000000E+00, )),
          _F(  GROUP_MA = 'SEC_12',
             SECTION = 'GENERALE',
              CARA = ('A', 'IZ', 'IY', 'AY', 'AZ', 'JX',
                     'EZ', 'EY', 'RY', 'RZ', 'RT', ),
              VALE = ( 5.348000000E+01, 5.486000000E+02, 4.253000000E+02,
                      1.720000000E+00, 1.060000000E+00, 1.000000000E+05,
                      0.000000000E+00, 0.000000000E+00, 1.000000000E+00,
                      1.000000000E+00, 1.000000000E+00, )),
          _F(  GROUP_MA = 'SEC_13',
             SECTION = 'GENERALE',
              CARA = ('A', 'IZ', 'IY', 'AY', 'AZ', 'JX',
                     'EZ', 'EY', 'RY', 'RZ', 'RT', ),
              VALE = ( 4.521000000E+01, 3.261000000E+02, 3.261000000E+02,
                      1.370000000E+00, 1.370000000E+00, 1.000000000E+05,
                      0.000000000E+00, 0.000000000E+00, 1.000000000E+00,
                      1.000000000E+00, 1.000000000E+00, )),
          _F(  GROUP_MA = 'SEC_14',
             SECTION = 'GENERALE',
              CARA = ('A', 'IZ', 'IY', 'AY', 'AZ', 'JX',
                     'EZ', 'EY', 'RY', 'RZ', 'RT', ),
              VALE = ( 4.000000000E+01, 5.934000000E+02, 1.000000000E+00,
                      2.080000000E+00, 1.000000000E+03, 1.000000000E+05,
                      0.000000000E+00, 0.000000000E+00, 1.000000000E+00,
                      1.000000000E+00, 1.000000000E+00, ))),
        DISCRET=(
# ON CARACTERISE LES NOEUDS COMPOSANT LE RADIER PAR DES MASSES NULLES POUR EVITER
# L ALARME
          _F(GROUP_MA='PRADIER',CARA='M_T_D_N',
              VALE=(0.,),),
          _F(GROUP_MA='LRADIER',CARA='M_T_D_L',
              VALE=(0.0,),),
          #
          _F(GROUP_MA=('MAS2','MAS3','MAS4','MAS5','MAS6','MAS7','MAS8','MAS9','MAS10','MAS11',
                       'MAS12','MAS13','MAS14','MAS15','MAS16','MAS17','MAS18','MAS19','MAS20','MAS21',
                       'MAS22','MAS23','MAS24','MAS25','MAS26','MAS27',),
             CARA='K_TR_D_N', VALE=(0.0,0.0,0.0,0.0,0.0,0.0,),),
          _F(GROUP_MA='PRADIER',CARA='K_T_D_N',
             VALE=(0.0,0.0,0.0),),
          _F(GROUP_MA='LRADIER',CARA='K_T_D_L',
             VALE=(0.0,0.0,0.0,),),

            #MASSES ET INERTIES LOCALISEES
          _F(  GROUP_MA = 'MAS2',     CARA = 'M_TR_D_N',
              VALE = ( 9.768000000E+06, 1.484000000E+09, 1.484000000E+09,
                      0.000000000E+00, 0.000000000E+00, 0.000000000E+00,
                      0.000000000E+00, 0.000000000E+00, 0.000000000E+00,
                      0.000000000E+00, )),
          _F(  GROUP_MA = 'MAS3',     CARA = 'M_TR_D_N',
              VALE = ( 2.827000000E+06, 9.359000000E+08, 9.359000000E+08,
                      0.000000000E+00, 0.000000000E+00, 0.000000000E+00,
                      0.000000000E+00, 0.000000000E+00, 0.000000000E+00,
                      0.000000000E+00, )),
          _F(  GROUP_MA = 'MAS4',     CARA = 'M_TR_D_N',
              VALE = ( 2.827000000E+06, 9.359000000E+08, 9.359000000E+08,
                      0.000000000E+00, 0.000000000E+00, 0.000000000E+00,
                      0.000000000E+00, 0.000000000E+00, 0.000000000E+00,
                      0.000000000E+00, )),
          _F(  GROUP_MA = 'MAS5',     CARA = 'M_TR_D_N',
              VALE = ( 1.921000000E+06, 6.176000000E+08, 6.176000000E+08,
                      0.000000000E+00, 0.000000000E+00, 0.000000000E+00,
                      0.000000000E+00, 0.000000000E+00, 0.000000000E+00,
                      0.000000000E+00, )),
          _F(  GROUP_MA = 'MAS6',     CARA = 'M_TR_D_N',
              VALE = ( 2.175000000E+06, 7.074000000E+08, 7.074000000E+08,
                      0.000000000E+00, 0.000000000E+00, 0.000000000E+00,
                      0.000000000E+00, 0.000000000E+00, 0.000000000E+00,
                      0.000000000E+00, )),
          _F(  GROUP_MA = 'MAS7',     CARA = 'M_TR_D_N',
              VALE = ( 2.729000000E+06, 9.008000000E+08, 9.008000000E+08,
                      0.000000000E+00, 0.000000000E+00, 0.000000000E+00,
                      0.000000000E+00, 0.000000000E+00, 0.000000000E+00,
                      0.000000000E+00, )),
          _F(  GROUP_MA = 'MAS8',     CARA = 'M_TR_D_N',
              VALE = ( 4.020000000E+06, 9.107000000E+08, 9.107000000E+08,
                      0.000000000E+00, 0.000000000E+00, 0.000000000E+00,
                      0.000000000E+00, 0.000000000E+00, 0.000000000E+00,
                      0.000000000E+00, )),
          _F(  GROUP_MA = 'MAS9',     CARA = 'M_TR_D_N',
              VALE = ( 3.554000000E+06, 8.840000000E+08, 8.840000000E+08,
                      1.768000000E+09, 0.000000000E+00, 0.000000000E+00,
                      0.000000000E+00, 0.000000000E+00, 0.000000000E+00,
                      0.000000000E+00, )),
          _F(  GROUP_MA = 'MAS10',    CARA = 'M_TR_D_N',
              VALE = ( 1.000000000E+00, 1.000000000E+00, 1.000000000E+00,
                      2.000000000E+00, 0.000000000E+00, 0.000000000E+00,
                      0.000000000E+00, 0.000000000E+00, 0.000000000E+00,
                      0.000000000E+00, )),
          _F(  GROUP_MA = 'MAS11',    CARA = 'M_TR_D_N',
              VALE = ( 2.098000000E+06, 5.200000000E+08, 5.200000000E+08,
                      1.040000000E+09, 0.000000000E+00, 0.000000000E+00,
                      0.000000000E+00, 0.000000000E+00, 0.000000000E+00,
                      0.000000000E+00, )),
          _F(  GROUP_MA = 'MAS12',    CARA = 'M_TR_D_N',
              VALE = ( 5.246000000E+06, 1.393000000E+09, 1.393000000E+09,
                      2.786000000E+09, 0.000000000E+00, 0.000000000E+00,
                      0.000000000E+00, 0.000000000E+00, 0.000000000E+00,
                      0.000000000E+00, )),
          _F(  GROUP_MA = 'MAS13',    CARA = 'M_TR_D_N',
              VALE = ( 5.858000000E+06, 1.525000000E+09, 1.525000000E+09,
                      3.050000000E+09, 0.000000000E+00, 0.000000000E+00,
                      0.000000000E+00, 0.000000000E+00, 0.000000000E+00,
                      0.000000000E+00, )),
          _F(  GROUP_MA = 'MAS14',    CARA = 'M_TR_D_N',
              VALE = ( 6.810000000E+06, 1.740000000E+09, 1.740000000E+09,
                      3.480000000E+09, 0.000000000E+00, 0.000000000E+00,
                      0.000000000E+00, 0.000000000E+00, 0.000000000E+00,
                      0.000000000E+00, )),
          _F(  GROUP_MA = 'MAS15',    CARA = 'M_TR_D_N',
              VALE = ( 1.000000000E+07, 2.020000000E+09, 2.020000000E+09,
                      4.040000000E+09, 0.000000000E+00, 0.000000000E+00,
                      0.000000000E+00, 0.000000000E+00, 0.000000000E+00,
                      0.000000000E+00, )),
          _F(  GROUP_MA = 'MAS16',    CARA = 'M_TR_D_N',
              VALE = ( 3.000000000E+05, 3.120000000E+07, 2.690000000E+07,
                      5.810000000E+07, 0.000000000E+00, 0.000000000E+00,
                      0.000000000E+00, 0.000000000E+00, 0.000000000E+00,
                      0.000000000E+00, )),
          _F(  GROUP_MA = 'MAS17',    CARA = 'M_TR_D_N',
              VALE = ( 2.750000000E+05, 5.700000000E+06, 3.500000000E+06,
                      9.200000000E+06, 0.000000000E+00, 0.000000000E+00,
                      0.000000000E+00, 0.000000000E+00, 0.000000000E+00,
                      0.000000000E+00, )),
          _F(  GROUP_MA = 'MAS18',    CARA = 'M_TR_D_N',
              VALE = ( 2.960000000E+06, 4.340000000E+08, 4.260000000E+08,
                      8.600000000E+08, 0.000000000E+00, 0.000000000E+00,
                      0.000000000E+00, 0.000000000E+00, 0.000000000E+00,
                      0.000000000E+00, )),
          _F(  GROUP_MA = 'MAS19',    CARA = 'M_TR_D_N',
              VALE = ( 1.130000000E+06, 3.620000000E+07, 3.190000000E+07,
                      6.810000000E+07, 0.000000000E+00, 0.000000000E+00,
                      0.000000000E+00, 0.000000000E+00, 0.000000000E+00,
                      0.000000000E+00, )),
          _F(  GROUP_MA = 'MAS20',    CARA = 'M_TR_D_N',
              VALE = ( 4.230000000E+06, 5.360000000E+08, 5.560000000E+08,
                      1.091000000E+09, 0.000000000E+00, 0.000000000E+00,
                      0.000000000E+00, 0.000000000E+00, 0.000000000E+00,
                      0.000000000E+00, )),
          _F(  GROUP_MA = 'MAS21',    CARA = 'M_TR_D_N',
              VALE = ( 3.260000000E+06, 5.390000000E+07, 6.750000000E+07,
                      1.214000000E+08, 0.000000000E+00, 0.000000000E+00,
                      0.000000000E+00, 0.000000000E+00, 0.000000000E+00,
                      0.000000000E+00, )),
          _F(  GROUP_MA = 'MAS22',    CARA = 'M_TR_D_N',
              VALE = ( 4.930000000E+06, 5.500000000E+08, 5.280000000E+08,
                      1.078000000E+09, 0.000000000E+00, 0.000000000E+00,
                      0.000000000E+00, 0.000000000E+00, 0.000000000E+00,
                      0.000000000E+00, )),
          _F(  GROUP_MA = 'MAS23',    CARA = 'M_TR_D_N',
              VALE = ( 1.890000000E+06, 1.700000000E+08, 1.000000000E+00,
                      1.700000000E+08, 0.000000000E+00, 0.000000000E+00,
                      0.000000000E+00, 0.000000000E+00, 0.000000000E+00,
                      0.000000000E+00, )),
          _F(  GROUP_MA = 'MAS24',    CARA = 'M_TR_D_N',
              VALE = ( 6.980000000E+06, 9.130000000E+08, 6.930000000E+08,
                      1.606000000E+09, 0.000000000E+00, 0.000000000E+00,
                      0.000000000E+00, 0.000000000E+00, 0.000000000E+00,
                      0.000000000E+00, )),
          _F(  GROUP_MA = 'MAS25',    CARA = 'M_TR_D_N',
              VALE = ( 3.800000000E+05, 1.000000000E+00, 1.000000000E+00,
                      1.000000000E+00, 0.000000000E+00, 0.000000000E+00,
                      0.000000000E+00, 0.000000000E+00, 0.000000000E+00,
                      0.000000000E+00, )),
          _F(  GROUP_MA = 'MAS26',    CARA = 'M_TR_D_N',
              VALE = ( 2.700000000E+05, 1.000000000E+00, 1.000000000E+00,
                      1.000000000E+00, 0.000000000E+00, 0.000000000E+00,
                      0.000000000E+00, 0.000000000E+00, 0.000000000E+00,
                      0.000000000E+00, )),
          _F(  GROUP_MA = 'MAS27',    CARA = 'M_TR_D_N',
              VALE = ( 1.000000000E+05, 1.000000000E+00, 1.000000000E+00,
                      1.000000000E+00, 0.000000000E+00, 0.000000000E+00,
                      0.000000000E+00, 0.000000000E+00, 0.000000000E+00,
                      0.000000000E+00, )),
          # FIN DES CARACTERISTIQUES DES MASSES

            # LIAISONS SIMPLES NOEUD-NOEUD

          _F(  GROUP_MA = 'RLN_1',    CARA = 'K_TR_D_L',
            VALE = ( 1.000000000E+00, 1.320000000E+10, 7.080000000E+08,
                   1.424000000E+10, 1.000000000E+00, 1.000000000E+13,),
                  REPERE = 'GLOBAL'),
          _F(  GROUP_MA = 'RLN_2',    CARA = 'K_TR_D_L',
            VALE = ( 7.800000000E+10, 1.040000000E+11, 6.160000000E+09,
                   1.632000000E+11, 5.560000000E+10, 1.000000000E+14,),
                  REPERE = 'GLOBAL'),
          _F(  GROUP_MA = 'RLN_3',    CARA = 'K_TR_D_L',
            VALE = ( 1.692000000E+11, 1.840000000E+11, 1.872000000E+10,
                   7.600000000E+11, 1.800000000E+11, 1.000000000E+14,),
                  REPERE = 'GLOBAL'),
          _F(  GROUP_MA = 'RLN_4',    CARA = 'K_TR_D_L',
            VALE = ( 1.000000000E+16, 2.000000000E+11, 5.872000000E+10,
                   4.039000000E+12, 1.000000000E+16, 1.000000000E+14,),
                  REPERE = 'GLOBAL'),
          _F(  GROUP_MA = 'RLN_5',    CARA = 'K_TR_D_L',
            VALE = ( 1.900000000E+11, 1.900000000E+11, 2.000000000E+09,
                   5.000000000E+11, 5.000000000E+11, 1.000000000E+14,),
                  REPERE = 'GLOBAL'))
               );

# LA STRUCTURE EST RIGIDIFIEE A L INTERFACE
#------------------------------------------

COND_LIM=AFFE_CHAR_MECA(  MODELE=STICKMOD,LIAISON_SOLIDE=(
                   _F(  GROUP_NO = ('HRADIER',)),
                   #_F(  GROUP_NO = ('SRADIER',))
                                                ),
                   DDL_IMPO=_F(  GROUP_NO = ('SRADIER',),
                                 DX = 0., DY = 0., DZ = 0.,
                                 #DRX = 0., DRY = 0., DRZ = 0.,
                                  )
                                             );

#
# CALCUL DE LA MASSE ET INERTIES DE LA STRUCTURE -----------------------

MASSESTR=POST_ELEM(  MODELE=STICKMOD,
                         CHAM_MATER=CHAMPMAT,   CARA_ELEM=CARA_ELE,
                        MASS_INER=_F(  TOUT = 'OUI') );

#


# ----------------------------------------------------------------------

RIGI_ELE=CALC_MATR_ELEM(  MODELE=STICKMOD,  OPTION='RIGI_MECA',
                        CHARGE=COND_LIM,
                        CHAM_MATER=CHAMPMAT,  CARA_ELEM=CARA_ELE );

MASS_ELE=CALC_MATR_ELEM( MODELE=STICKMOD,  OPTION='MASS_MECA',
                        CHARGE=COND_LIM,
                        CHAM_MATER=CHAMPMAT,  CARA_ELEM=CARA_ELE );

#

NUMEDDL=NUME_DDL(  MATR_RIGI=RIGI_ELE );

RIGIDITE=ASSE_MATRICE(  MATR_ELEM=RIGI_ELE,  NUME_DDL=NUMEDDL );

MASSE=ASSE_MATRICE(  MATR_ELEM=MASS_ELE,  NUME_DDL=NUMEDDL );


#
# CALCUL DES MODES :
#---------------------------------------------

MODE=CALC_MODES( MATR_RIGI=RIGIDITE,
                 MATR_MASS=MASSE,
                 CALC_FREQ=_F( NMAX_FREQ = 10 ),
                );

#
# CALCUL DU MACRO-ELEMENT DYNAMIQUE :
#---------------------------------------------

INTERDYN=DEFI_INTERF_DYNA(  NUME_DDL=NUMEDDL,
            INTERFACE=_F( NOM = 'DROITE',
                       TYPE = 'CRAIGB',
                       GROUP_NO = ('SRADIER',))
           );

BAMO=DEFI_BASE_MODALE(   CLASSIQUE=_F( INTERF_DYNA = INTERDYN,
                                      MODE_MECA = MODE,
                                      NMAX_MODE = 10)
       );

MAEL=MACR_ELEM_DYNA(  BASE_MODALE=BAMO);

#
FO1=DEFI_FONCTION(   NOM_PARA='FREQ',
          VALE=( 0., 1., 100., 1., ) );


TABSOL=DEFI_SOL_MISS(
    TITRE="SOL STRATIFIE",
    MATERIAU=(
        _F(E=1.01E10,  NU=0.38, RHO=2400, AMOR_HYST=0.10),
        _F(E=2.06E10,  NU=0.36, RHO=2500, AMOR_HYST=0.10),
        _F(E=1.66E10,  NU=0.39, RHO=2400, AMOR_HYST=0.10),
        _F(E=2.60E10,  NU=0.31, RHO=2500, AMOR_HYST=0.10),
    ),
    COUCHE=(
        _F(EPAIS=10.5, NUME_MATE=1, RECEPTEUR="OUI", SOURCE="OUI",),
        _F(EPAIS=10.5, NUME_MATE=2,),
        _F(EPAIS=19.5, NUME_MATE=3,),
        _F(SUBSTRATUM="OUI", NUME_MATE=4,),
    ),
    INFO=2,
)

# TRAITEMENT DE MISS3D PAR EXEC_LOGICIEL
#---------------------------------------
DEFI_FICHIER(ACTION='ASSOCIER',
             UNITE=25,
             FICHIER='impedances.miss')

CALC_MISS(
    TYPE_RESU='FICHIER',
    TABLE_SOL=TABSOL,
    MACR_ELEM_DYNA=MAEL,
    AMOR_REDUIT=(0.07,),
    GROUP_MA_INTERF='SRADIER',

    UNITE_IMPR_ASTER=26,
    UNITE_RESU_IMPE=25,
    UNITE_RESU_FORC=38,
    VERSION='V6.6',
    PARAMETRE=_F(
        FREQ_MIN=1.,
        FREQ_MAX=10.,
        FREQ_PAS=1.,
        Z0=-6.05,
        SURF='OUI',
        ALGO = 'DEPL',
        OFFSET_MAX=60,
        OFFSET_NB=400,
        SPEC_MAX=0.03,
        SPEC_NB=2048,
    ),
)

# ----------------------------------------------------------------------
# AFFECTATION DES CARACTERISTIQUES ELEMENTAIRES

CARA_EL2=AFFE_CARA_ELEM( MODELE=STICKMOD,
            #COQUE=_F( GROUP_MA = 'SRADIER', EPAIS = 0.001),
            POUTRE=(

          _F(  GROUP_MA = 'SEC_2',
             SECTION = 'GENERALE',
              CARA = ('A', 'IZ', 'IY', 'AY', 'AZ', 'JX',
                     'EZ', 'EY', 'RY', 'RZ', 'RT', ),
              VALE = ( 8.700000000E+01, 2.756900000E+04, 2.756900000E+04,
                      2.000000000E+00, 2.000000000E+00, 1.000000000E+07,
                      0.000000000E+00, 0.000000000E+00, 1.000000000E+00,
                      1.000000000E+00, 1.000000000E+00, )),
          _F(  GROUP_MA = 'SEC_3',
             SECTION = 'GENERALE',
              CARA = ('A', 'IZ', 'IY', 'AY', 'AZ', 'JX',
                     'EZ', 'EY', 'RY', 'RZ', 'RT', ),
              VALE = ( 1.696000000E+02, 4.294200000E+04, 4.294200000E+04,
                      2.000000000E+00, 2.000000000E+00, 1.000000000E+07,
                      0.000000000E+00, 0.000000000E+00, 1.000000000E+00,
                      1.000000000E+00, 1.000000000E+00, )),
          _F(  GROUP_MA = 'SEC_4',
             SECTION = 'GENERALE',
              CARA = ('A', 'IZ', 'IY', 'AY', 'AZ', 'JX',
                     'EZ', 'EY', 'RY', 'RZ', 'RT', ),
              VALE = ( 9.400000000E+01, 1.250000000E+04, 1.250000000E+04,
                      7.705000000E+01, 7.705000000E+01, 1.000000000E+07,
                      0.000000000E+00, 0.000000000E+00, 1.000000000E+00,
                      1.000000000E+00, 1.000000000E+00, )),
          _F(  GROUP_MA = 'SEC_5',
             SECTION = 'GENERALE',
              CARA = ('A', 'IZ', 'IY', 'AY', 'AZ', 'JX',
                     'EZ', 'EY', 'RY', 'RZ', 'RT', ),
              VALE = ( 4.852000000E+01, 6.522400000E+03, 6.142000000E+03,
                      5.720000000E+00, 3.540000000E+00, 1.000000000E+06,
                      0.000000000E+00, 0.000000000E+00, 1.000000000E+00,
                      1.000000000E+00, 1.000000000E+00, )),
          _F(  GROUP_MA = 'SEC_6',
             SECTION = 'GENERALE',
              CARA = ('A', 'IZ', 'IY', 'AY', 'AZ', 'JX',
                     'EZ', 'EY', 'RY', 'RZ', 'RT', ),
              VALE = ( 4.852000000E+01, 6.522400000E+03, 6.142000000E+03,
                      6.800000000E+00, 3.950000000E+00, 1.000000000E+06,
                      0.000000000E+00, 0.000000000E+00, 1.000000000E+00,
                      1.000000000E+00, 1.000000000E+00, )),
          _F(  GROUP_MA = 'SEC_7',
             SECTION = 'GENERALE',
              CARA = ('A', 'IZ', 'IY', 'AY', 'AZ', 'JX',
                     'EZ', 'EY', 'RY', 'RZ', 'RT', ),
              VALE = ( 2.328000000E+02, 1.095800000E+04, 2.128000000E+04,
                      4.950000000E+00, 1.870000000E+00, 1.000000000E+07,
                      0.000000000E+00, 0.000000000E+00, 1.000000000E+00,
                      1.000000000E+00, 1.000000000E+00, )),
          _F(  GROUP_MA = 'SEC_8',
             SECTION = 'GENERALE',
              CARA = ('A', 'IZ', 'IY', 'AY', 'AZ', 'JX',
                     'EZ', 'EY', 'RY', 'RZ', 'RT', ),
              VALE = ( 2.277000000E+02, 2.300000000E+04, 2.107900000E+04,
                      4.550000000E+00, 3.340000000E+00, 1.000000000E+07,
                      0.000000000E+00, 0.000000000E+00, 1.000000000E+00,
                      1.000000000E+00, 1.000000000E+00, )),
          _F(  GROUP_MA = 'SEC_9',
             SECTION = 'GENERALE',
              CARA = ('A', 'IZ', 'IY', 'AY', 'AZ', 'JX',
                     'EZ', 'EY', 'RY', 'RZ', 'RT', ),
              VALE = ( 1.490000000E+01, 1.900000000E+02, 1.500000000E+02,
                      1.860000000E+00, 1.770000000E+00, 1.000000000E+05,
                      0.000000000E+00, 0.000000000E+00, 1.000000000E+00,
                      1.000000000E+00, 1.000000000E+00, )),
          _F(  GROUP_MA = 'SEC_10',
             SECTION = 'GENERALE',
              CARA = ('A', 'IZ', 'IY', 'AY', 'AZ', 'JX',
                     'EZ', 'EY', 'RY', 'RZ', 'RT', ),
              VALE = ( 1.430000000E+01, 1.200000000E+02, 1.170000000E+02,
                      3.570000000E+00, 2.200000000E+00, 1.000000000E+05,
                      0.000000000E+00, 0.000000000E+00, 1.000000000E+00,
                      1.000000000E+00, 1.000000000E+00, )),
          _F(  GROUP_MA = 'SEC_11',
             SECTION = 'GENERALE',
              CARA = ('A', 'IZ', 'IY', 'AY', 'AZ', 'JX',
                     'EZ', 'EY', 'RY', 'RZ', 'RT', ),
              VALE = ( 5.348000000E+01, 5.486000000E+02, 5.486000000E+02,
                      7.640000000E+01, 7.640000000E+01, 1.000000000E+05,
                      0.000000000E+00, 0.000000000E+00, 1.000000000E+00,
                      1.000000000E+00, 1.000000000E+00, )),
          _F(  GROUP_MA = 'SEC_12',
             SECTION = 'GENERALE',
              CARA = ('A', 'IZ', 'IY', 'AY', 'AZ', 'JX',
                     'EZ', 'EY', 'RY', 'RZ', 'RT', ),
              VALE = ( 5.348000000E+01, 5.486000000E+02, 4.253000000E+02,
                      1.720000000E+00, 1.060000000E+00, 1.000000000E+05,
                      0.000000000E+00, 0.000000000E+00, 1.000000000E+00,
                      1.000000000E+00, 1.000000000E+00, )),
          _F(  GROUP_MA = 'SEC_13',
             SECTION = 'GENERALE',
              CARA = ('A', 'IZ', 'IY', 'AY', 'AZ', 'JX',
                     'EZ', 'EY', 'RY', 'RZ', 'RT', ),
              VALE = ( 4.521000000E+01, 3.261000000E+02, 3.261000000E+02,
                      1.370000000E+00, 1.370000000E+00, 1.000000000E+05,
                      0.000000000E+00, 0.000000000E+00, 1.000000000E+00,
                      1.000000000E+00, 1.000000000E+00, )),
          _F(  GROUP_MA = 'SEC_14',
             SECTION = 'GENERALE',
              CARA = ('A', 'IZ', 'IY', 'AY', 'AZ', 'JX',
                     'EZ', 'EY', 'RY', 'RZ', 'RT', ),
              VALE = ( 4.000000000E+01, 5.934000000E+02, 1.000000000E+00,
                      2.080000000E+00, 1.000000000E+03, 1.000000000E+05,
                      0.000000000E+00, 0.000000000E+00, 1.000000000E+00,
                      1.000000000E+00, 1.000000000E+00, ))),
        DISCRET=(
         # ON CARACTERISE LES ELEMENTS PAR DES VALEURS NULLES POUR EVITER L ALARME
          _F(GROUP_MA='LRADIER',CARA='M_T_D_L',
              VALE=(0.0,),),
          #
          _F(GROUP_MA=('MAS2','MAS3','MAS4','MAS5','MAS6','MAS7','MAS8','MAS9','MAS10','MAS11',
                       'MAS12','MAS13','MAS14','MAS15','MAS16','MAS17','MAS18','MAS19','MAS20','MAS21',
                       'MAS22','MAS23','MAS24','MAS25','MAS26','MAS27',),
             CARA='K_TR_D_N', VALE=(0.0,0.0,0.0,0.0,0.0,0.0,),),
          _F(GROUP_MA='LRADIER',CARA='K_T_D_L',
             VALE=(0.0,0.0,0.0,),),

                  #MASSES ET INERTIES LOCALISEES
          _F(  GROUP_MA = 'MAS2',     CARA = 'M_TR_D_N',
              VALE = ( 9.768000000E+06, 1.484000000E+09, 1.484000000E+09,
                      0.000000000E+00, 0.000000000E+00, 0.000000000E+00,
                      0.000000000E+00, 0.000000000E+00, 0.000000000E+00,
                      0.000000000E+00, )),
          _F(  GROUP_MA = 'MAS3',     CARA = 'M_TR_D_N',
              VALE = ( 2.827000000E+06, 9.359000000E+08, 9.359000000E+08,
                      0.000000000E+00, 0.000000000E+00, 0.000000000E+00,
                      0.000000000E+00, 0.000000000E+00, 0.000000000E+00,
                      0.000000000E+00, )),
          _F(  GROUP_MA = 'MAS4',     CARA = 'M_TR_D_N',
              VALE = ( 2.827000000E+06, 9.359000000E+08, 9.359000000E+08,
                      0.000000000E+00, 0.000000000E+00, 0.000000000E+00,
                      0.000000000E+00, 0.000000000E+00, 0.000000000E+00,
                      0.000000000E+00, )),
          _F(  GROUP_MA = 'MAS5',     CARA = 'M_TR_D_N',
              VALE = ( 1.921000000E+06, 6.176000000E+08, 6.176000000E+08,
                      0.000000000E+00, 0.000000000E+00, 0.000000000E+00,
                      0.000000000E+00, 0.000000000E+00, 0.000000000E+00,
                      0.000000000E+00, )),
          _F(  GROUP_MA = 'MAS6',     CARA = 'M_TR_D_N',
              VALE = ( 2.175000000E+06, 7.074000000E+08, 7.074000000E+08,
                      0.000000000E+00, 0.000000000E+00, 0.000000000E+00,
                      0.000000000E+00, 0.000000000E+00, 0.000000000E+00,
                      0.000000000E+00, )),
          _F(  GROUP_MA = 'MAS7',     CARA = 'M_TR_D_N',
              VALE = ( 2.729000000E+06, 9.008000000E+08, 9.008000000E+08,
                      0.000000000E+00, 0.000000000E+00, 0.000000000E+00,
                      0.000000000E+00, 0.000000000E+00, 0.000000000E+00,
                      0.000000000E+00, )),
          _F(  GROUP_MA = 'MAS8',     CARA = 'M_TR_D_N',
              VALE = ( 4.020000000E+06, 9.107000000E+08, 9.107000000E+08,
                      0.000000000E+00, 0.000000000E+00, 0.000000000E+00,
                      0.000000000E+00, 0.000000000E+00, 0.000000000E+00,
                      0.000000000E+00, )),
          _F(  GROUP_MA = 'MAS9',     CARA = 'M_TR_D_N',
              VALE = ( 3.554000000E+06, 8.840000000E+08, 8.840000000E+08,
                      1.768000000E+09, 0.000000000E+00, 0.000000000E+00,
                      0.000000000E+00, 0.000000000E+00, 0.000000000E+00,
                      0.000000000E+00, )),
          _F(  GROUP_MA = 'MAS10',    CARA = 'M_TR_D_N',
              VALE = ( 1.000000000E+00, 1.000000000E+00, 1.000000000E+00,
                      2.000000000E+00, 0.000000000E+00, 0.000000000E+00,
                      0.000000000E+00, 0.000000000E+00, 0.000000000E+00,
                      0.000000000E+00, )),
          _F(  GROUP_MA = 'MAS11',    CARA = 'M_TR_D_N',
              VALE = ( 2.098000000E+06, 5.200000000E+08, 5.200000000E+08,
                      1.040000000E+09, 0.000000000E+00, 0.000000000E+00,
                      0.000000000E+00, 0.000000000E+00, 0.000000000E+00,
                      0.000000000E+00, )),
          _F(  GROUP_MA = 'MAS12',    CARA = 'M_TR_D_N',
              VALE = ( 5.246000000E+06, 1.393000000E+09, 1.393000000E+09,
                      2.786000000E+09, 0.000000000E+00, 0.000000000E+00,
                      0.000000000E+00, 0.000000000E+00, 0.000000000E+00,
                      0.000000000E+00, )),
          _F(  GROUP_MA = 'MAS13',    CARA = 'M_TR_D_N',
              VALE = ( 5.858000000E+06, 1.525000000E+09, 1.525000000E+09,
                      3.050000000E+09, 0.000000000E+00, 0.000000000E+00,
                      0.000000000E+00, 0.000000000E+00, 0.000000000E+00,
                      0.000000000E+00, )),
          _F(  GROUP_MA = 'MAS14',    CARA = 'M_TR_D_N',
              VALE = ( 6.810000000E+06, 1.740000000E+09, 1.740000000E+09,
                      3.480000000E+09, 0.000000000E+00, 0.000000000E+00,
                      0.000000000E+00, 0.000000000E+00, 0.000000000E+00,
                      0.000000000E+00, )),
          _F(  GROUP_MA = 'MAS15',    CARA = 'M_TR_D_N',
              VALE = ( 1.000000000E+07, 2.020000000E+09, 2.020000000E+09,
                      4.040000000E+09, 0.000000000E+00, 0.000000000E+00,
                      0.000000000E+00, 0.000000000E+00, 0.000000000E+00,
                      0.000000000E+00, )),
          _F(  GROUP_MA = 'MAS16',    CARA = 'M_TR_D_N',
              VALE = ( 3.000000000E+05, 3.120000000E+07, 2.690000000E+07,
                      5.810000000E+07, 0.000000000E+00, 0.000000000E+00,
                      0.000000000E+00, 0.000000000E+00, 0.000000000E+00,
                      0.000000000E+00, )),
          _F(  GROUP_MA = 'MAS17',    CARA = 'M_TR_D_N',
              VALE = ( 2.750000000E+05, 5.700000000E+06, 3.500000000E+06,
                      9.200000000E+06, 0.000000000E+00, 0.000000000E+00,
                      0.000000000E+00, 0.000000000E+00, 0.000000000E+00,
                      0.000000000E+00, )),
          _F(  GROUP_MA = 'MAS18',    CARA = 'M_TR_D_N',
              VALE = ( 2.960000000E+06, 4.340000000E+08, 4.260000000E+08,
                      8.600000000E+08, 0.000000000E+00, 0.000000000E+00,
                      0.000000000E+00, 0.000000000E+00, 0.000000000E+00,
                      0.000000000E+00, )),
          _F(  GROUP_MA = 'MAS19',    CARA = 'M_TR_D_N',
              VALE = ( 1.130000000E+06, 3.620000000E+07, 3.190000000E+07,
                      6.810000000E+07, 0.000000000E+00, 0.000000000E+00,
                      0.000000000E+00, 0.000000000E+00, 0.000000000E+00,
                      0.000000000E+00, )),
          _F(  GROUP_MA = 'MAS20',    CARA = 'M_TR_D_N',
              VALE = ( 4.230000000E+06, 5.360000000E+08, 5.560000000E+08,
                      1.091000000E+09, 0.000000000E+00, 0.000000000E+00,
                      0.000000000E+00, 0.000000000E+00, 0.000000000E+00,
                      0.000000000E+00, )),
          _F(  GROUP_MA = 'MAS21',    CARA = 'M_TR_D_N',
              VALE = ( 3.260000000E+06, 5.390000000E+07, 6.750000000E+07,
                      1.214000000E+08, 0.000000000E+00, 0.000000000E+00,
                      0.000000000E+00, 0.000000000E+00, 0.000000000E+00,
                      0.000000000E+00, )),
          _F(  GROUP_MA = 'MAS22',    CARA = 'M_TR_D_N',
              VALE = ( 4.930000000E+06, 5.500000000E+08, 5.280000000E+08,
                      1.078000000E+09, 0.000000000E+00, 0.000000000E+00,
                      0.000000000E+00, 0.000000000E+00, 0.000000000E+00,
                      0.000000000E+00, )),
          _F(  GROUP_MA = 'MAS23',    CARA = 'M_TR_D_N',
              VALE = ( 1.890000000E+06, 1.700000000E+08, 1.000000000E+00,
                      1.700000000E+08, 0.000000000E+00, 0.000000000E+00,
                      0.000000000E+00, 0.000000000E+00, 0.000000000E+00,
                      0.000000000E+00, )),
          _F(  GROUP_MA = 'MAS24',    CARA = 'M_TR_D_N',
              VALE = ( 6.980000000E+06, 9.130000000E+08, 6.930000000E+08,
                      1.606000000E+09, 0.000000000E+00, 0.000000000E+00,
                      0.000000000E+00, 0.000000000E+00, 0.000000000E+00,
                      0.000000000E+00, )),
          _F(  GROUP_MA = 'MAS25',    CARA = 'M_TR_D_N',
              VALE = ( 3.800000000E+05, 1.000000000E+00, 1.000000000E+00,
                      1.000000000E+00, 0.000000000E+00, 0.000000000E+00,
                      0.000000000E+00, 0.000000000E+00, 0.000000000E+00,
                      0.000000000E+00, )),
          _F(  GROUP_MA = 'MAS26',    CARA = 'M_TR_D_N',
              VALE = ( 2.700000000E+05, 1.000000000E+00, 1.000000000E+00,
                      1.000000000E+00, 0.000000000E+00, 0.000000000E+00,
                      0.000000000E+00, 0.000000000E+00, 0.000000000E+00,
                      0.000000000E+00, )),
          _F(  GROUP_MA = 'MAS27',    CARA = 'M_TR_D_N',
              VALE = ( 1.000000000E+05, 1.000000000E+00, 1.000000000E+00,
                      1.000000000E+00, 0.000000000E+00, 0.000000000E+00,
                      0.000000000E+00, 0.000000000E+00, 0.000000000E+00,
                      0.000000000E+00, )),
          # FIN DES CARACTERISTIQUES DES MASSES

            # LIAISONS SIMPLES NOEUD-NOEUD

          _F(  GROUP_MA = 'RLN_1',    CARA = 'K_TR_D_L',
            VALE = ( 1.000000000E+00, 1.320000000E+10, 7.080000000E+08,
                   1.424000000E+10, 1.000000000E+00, 1.000000000E+13,),
                  REPERE = 'GLOBAL'),
          _F(  GROUP_MA = 'RLN_2',    CARA = 'K_TR_D_L',
            VALE = ( 7.800000000E+10, 1.040000000E+11, 6.160000000E+09,
                   1.632000000E+11, 5.560000000E+10, 1.000000000E+14,),
                  REPERE = 'GLOBAL'),
          _F(  GROUP_MA = 'RLN_3',    CARA = 'K_TR_D_L',
            VALE = ( 1.692000000E+11, 1.840000000E+11, 1.872000000E+10,
                   7.600000000E+11, 1.800000000E+11, 1.000000000E+14,),
                  REPERE = 'GLOBAL'),
          _F(  GROUP_MA = 'RLN_4',    CARA = 'K_TR_D_L',
            VALE = ( 1.000000000E+16, 2.000000000E+11, 5.872000000E+10,
                   4.039000000E+12, 1.000000000E+16, 1.000000000E+14,),
                  REPERE = 'GLOBAL'),
          _F(  GROUP_MA = 'RLN_5',    CARA = 'K_TR_D_L',
            VALE = ( 1.900000000E+11, 1.900000000E+11, 2.000000000E+09,
                   5.000000000E+11, 5.000000000E+11, 1.000000000E+14,),
                  REPERE = 'GLOBAL'),
                                     ),
         RIGI_MISS_3D=_F(
              GROUP_MA_POI1='PRADIER',
              #GROUP_MA_SEG2='LRADIER',
              FREQ_EXTR=4.0, UNITE_RESU_IMPE=25)
               );

# LA STRUCTURE EST RIGIDIFIEE A L INTERFACE
#------------------------------------------

COND_LI2=AFFE_CHAR_MECA(  MODELE=STICKMOD,LIAISON_SOLIDE=(
                   _F(  GROUP_NO = ('HRADIER',)),
                   #_F(  GROUP_NO = ('SRADIER',))
                                                ),
                                             );

ASSEMBLAGE(MODELE=STICKMOD,
                CHAM_MATER=CHAMPMAT,
                CARA_ELEM=CARA_EL2,
                CHARGE=COND_LI2,
                NUME_DDL=CO('NUMEROTA'),
                MATR_ASSE=(_F(MATRICE=CO('MATRRIGI'),
                              OPTION='RIGI_MECA',),
                           _F(MATRICE=CO('MATRMASS'),
                              OPTION='MASS_MECA',),),);

#
# CALCUL DES MODES :
#---------------------------------------------

MODE2=CALC_MODES( MATR_RIGI=MATRRIGI,
                  MATR_MASS=MATRMASS,
                  CALC_FREQ=_F( NMAX_FREQ = 10 ),
                 #VERI_MODE=_F(  STOP_ERREUR='NON')
                 );


TEST_RESU(RESU=(_F(NUME_ORDRE=1,
                   PARA='FREQ',
                   RESULTAT=MODE2,
                   VALE_CALC=3.8493200000000001,
                   CRITERE='RELATIF',
                   ),
                _F(NUME_ORDRE=2,
                   PARA='FREQ',
                   RESULTAT=MODE2,
                   VALE_CALC=3.8568950298109,
                   CRITERE='RELATIF',
                   ),
                _F(NUME_ORDRE=3,
                   PARA='FREQ',
                   RESULTAT=MODE2,
                   VALE_CALC=4.7788300000000001,
                   CRITERE='RELATIF',
                   ),
                _F(NUME_ORDRE=4,
                   PARA='FREQ',
                   RESULTAT=MODE2,
                   VALE_CALC=4.7805299999999997,
                   CRITERE='RELATIF',
                   ),
                _F(NUME_ORDRE=5,
                   PARA='FREQ',
                   RESULTAT=MODE2,
                   VALE_CALC=7.1209600000000002,
                   CRITERE='RELATIF',
                   ),
                ),
          )
#
# ----------------------------------------------------------------------
# AFFECTATION DES CARACTERISTIQUES ELEMENTAIRES

CARA_EL3=AFFE_CARA_ELEM( MODELE=STICKMOD,
            #COQUE=_F( GROUP_MA = 'SRADIER', EPAIS = 0.001),
            POUTRE=(

          _F(  GROUP_MA = 'SEC_2',
             SECTION = 'GENERALE',
              CARA = ('A', 'IZ', 'IY', 'AY', 'AZ', 'JX',
                     'EZ', 'EY', 'RY', 'RZ', 'RT', ),
              VALE = ( 8.700000000E+01, 2.756900000E+04, 2.756900000E+04,
                      2.000000000E+00, 2.000000000E+00, 1.000000000E+07,
                      0.000000000E+00, 0.000000000E+00, 1.000000000E+00,
                      1.000000000E+00, 1.000000000E+00, )),
          _F(  GROUP_MA = 'SEC_3',
             SECTION = 'GENERALE',
              CARA = ('A', 'IZ', 'IY', 'AY', 'AZ', 'JX',
                     'EZ', 'EY', 'RY', 'RZ', 'RT', ),
              VALE = ( 1.696000000E+02, 4.294200000E+04, 4.294200000E+04,
                      2.000000000E+00, 2.000000000E+00, 1.000000000E+07,
                      0.000000000E+00, 0.000000000E+00, 1.000000000E+00,
                      1.000000000E+00, 1.000000000E+00, )),
          _F(  GROUP_MA = 'SEC_4',
             SECTION = 'GENERALE',
              CARA = ('A', 'IZ', 'IY', 'AY', 'AZ', 'JX',
                     'EZ', 'EY', 'RY', 'RZ', 'RT', ),
              VALE = ( 9.400000000E+01, 1.250000000E+04, 1.250000000E+04,
                      7.705000000E+01, 7.705000000E+01, 1.000000000E+07,
                      0.000000000E+00, 0.000000000E+00, 1.000000000E+00,
                      1.000000000E+00, 1.000000000E+00, )),
          _F(  GROUP_MA = 'SEC_5',
             SECTION = 'GENERALE',
              CARA = ('A', 'IZ', 'IY', 'AY', 'AZ', 'JX',
                     'EZ', 'EY', 'RY', 'RZ', 'RT', ),
              VALE = ( 4.852000000E+01, 6.522400000E+03, 6.142000000E+03,
                      5.720000000E+00, 3.540000000E+00, 1.000000000E+06,
                      0.000000000E+00, 0.000000000E+00, 1.000000000E+00,
                      1.000000000E+00, 1.000000000E+00, )),
          _F(  GROUP_MA = 'SEC_6',
             SECTION = 'GENERALE',
              CARA = ('A', 'IZ', 'IY', 'AY', 'AZ', 'JX',
                     'EZ', 'EY', 'RY', 'RZ', 'RT', ),
              VALE = ( 4.852000000E+01, 6.522400000E+03, 6.142000000E+03,
                      6.800000000E+00, 3.950000000E+00, 1.000000000E+06,
                      0.000000000E+00, 0.000000000E+00, 1.000000000E+00,
                      1.000000000E+00, 1.000000000E+00, )),
          _F(  GROUP_MA = 'SEC_7',
             SECTION = 'GENERALE',
              CARA = ('A', 'IZ', 'IY', 'AY', 'AZ', 'JX',
                     'EZ', 'EY', 'RY', 'RZ', 'RT', ),
              VALE = ( 2.328000000E+02, 1.095800000E+04, 2.128000000E+04,
                      4.950000000E+00, 1.870000000E+00, 1.000000000E+07,
                      0.000000000E+00, 0.000000000E+00, 1.000000000E+00,
                      1.000000000E+00, 1.000000000E+00, )),
          _F(  GROUP_MA = 'SEC_8',
             SECTION = 'GENERALE',
              CARA = ('A', 'IZ', 'IY', 'AY', 'AZ', 'JX',
                     'EZ', 'EY', 'RY', 'RZ', 'RT', ),
              VALE = ( 2.277000000E+02, 2.300000000E+04, 2.107900000E+04,
                      4.550000000E+00, 3.340000000E+00, 1.000000000E+07,
                      0.000000000E+00, 0.000000000E+00, 1.000000000E+00,
                      1.000000000E+00, 1.000000000E+00, )),
          _F(  GROUP_MA = 'SEC_9',
             SECTION = 'GENERALE',
              CARA = ('A', 'IZ', 'IY', 'AY', 'AZ', 'JX',
                     'EZ', 'EY', 'RY', 'RZ', 'RT', ),
              VALE = ( 1.490000000E+01, 1.900000000E+02, 1.500000000E+02,
                      1.860000000E+00, 1.770000000E+00, 1.000000000E+05,
                      0.000000000E+00, 0.000000000E+00, 1.000000000E+00,
                      1.000000000E+00, 1.000000000E+00, )),
          _F(  GROUP_MA = 'SEC_10',
             SECTION = 'GENERALE',
              CARA = ('A', 'IZ', 'IY', 'AY', 'AZ', 'JX',
                     'EZ', 'EY', 'RY', 'RZ', 'RT', ),
              VALE = ( 1.430000000E+01, 1.200000000E+02, 1.170000000E+02,
                      3.570000000E+00, 2.200000000E+00, 1.000000000E+05,
                      0.000000000E+00, 0.000000000E+00, 1.000000000E+00,
                      1.000000000E+00, 1.000000000E+00, )),
          _F(  GROUP_MA = 'SEC_11',
             SECTION = 'GENERALE',
              CARA = ('A', 'IZ', 'IY', 'AY', 'AZ', 'JX',
                     'EZ', 'EY', 'RY', 'RZ', 'RT', ),
              VALE = ( 5.348000000E+01, 5.486000000E+02, 5.486000000E+02,
                      7.640000000E+01, 7.640000000E+01, 1.000000000E+05,
                      0.000000000E+00, 0.000000000E+00, 1.000000000E+00,
                      1.000000000E+00, 1.000000000E+00, )),
          _F(  GROUP_MA = 'SEC_12',
             SECTION = 'GENERALE',
              CARA = ('A', 'IZ', 'IY', 'AY', 'AZ', 'JX',
                     'EZ', 'EY', 'RY', 'RZ', 'RT', ),
              VALE = ( 5.348000000E+01, 5.486000000E+02, 4.253000000E+02,
                      1.720000000E+00, 1.060000000E+00, 1.000000000E+05,
                      0.000000000E+00, 0.000000000E+00, 1.000000000E+00,
                      1.000000000E+00, 1.000000000E+00, )),
          _F(  GROUP_MA = 'SEC_13',
             SECTION = 'GENERALE',
              CARA = ('A', 'IZ', 'IY', 'AY', 'AZ', 'JX',
                     'EZ', 'EY', 'RY', 'RZ', 'RT', ),
              VALE = ( 4.521000000E+01, 3.261000000E+02, 3.261000000E+02,
                      1.370000000E+00, 1.370000000E+00, 1.000000000E+05,
                      0.000000000E+00, 0.000000000E+00, 1.000000000E+00,
                      1.000000000E+00, 1.000000000E+00, )),
          _F(  GROUP_MA = 'SEC_14',
             SECTION = 'GENERALE',
              CARA = ('A', 'IZ', 'IY', 'AY', 'AZ', 'JX',
                     'EZ', 'EY', 'RY', 'RZ', 'RT', ),
              VALE = ( 4.000000000E+01, 5.934000000E+02, 1.000000000E+00,
                      2.080000000E+00, 1.000000000E+03, 1.000000000E+05,
                      0.000000000E+00, 0.000000000E+00, 1.000000000E+00,
                      1.000000000E+00, 1.000000000E+00, ))),
        DISCRET=(
# ON CARACTERISE LES NOEUDS COMPOSANT LE RADIER PAR DES MASSES NULLES POUR EVITER
# L ALARME
          _F(GROUP_MA='PRADIER',CARA='M_T_D_N',
              VALE=(0.0,),),
          _F(GROUP_MA='LRADIER',CARA='M_T_D_L',
              VALE=(0.0,),),
          #
          _F(GROUP_MA=('MAS2','MAS3','MAS4','MAS5','MAS6','MAS7','MAS8','MAS9','MAS10','MAS11',
                       'MAS12','MAS13','MAS14','MAS15','MAS16','MAS17','MAS18','MAS19','MAS20','MAS21',
                       'MAS22','MAS23','MAS24','MAS25','MAS26','MAS27',),
             CARA='K_TR_D_N', VALE=(0.0,0.0,0.0,0.0,0.0,0.0,),),

                  #MASSES ET INERTIES LOCALISEES
          _F(  GROUP_MA = 'MAS2',     CARA = 'M_TR_D_N',
              VALE = ( 9.768000000E+06, 1.484000000E+09, 1.484000000E+09,
                      0.000000000E+00, 0.000000000E+00, 0.000000000E+00,
                      0.000000000E+00, 0.000000000E+00, 0.000000000E+00,
                      0.000000000E+00, )),
          _F(  GROUP_MA = 'MAS3',     CARA = 'M_TR_D_N',
              VALE = ( 2.827000000E+06, 9.359000000E+08, 9.359000000E+08,
                      0.000000000E+00, 0.000000000E+00, 0.000000000E+00,
                      0.000000000E+00, 0.000000000E+00, 0.000000000E+00,
                      0.000000000E+00, )),
          _F(  GROUP_MA = 'MAS4',     CARA = 'M_TR_D_N',
              VALE = ( 2.827000000E+06, 9.359000000E+08, 9.359000000E+08,
                      0.000000000E+00, 0.000000000E+00, 0.000000000E+00,
                      0.000000000E+00, 0.000000000E+00, 0.000000000E+00,
                      0.000000000E+00, )),
          _F(  GROUP_MA = 'MAS5',     CARA = 'M_TR_D_N',
              VALE = ( 1.921000000E+06, 6.176000000E+08, 6.176000000E+08,
                      0.000000000E+00, 0.000000000E+00, 0.000000000E+00,
                      0.000000000E+00, 0.000000000E+00, 0.000000000E+00,
                      0.000000000E+00, )),
          _F(  GROUP_MA = 'MAS6',     CARA = 'M_TR_D_N',
              VALE = ( 2.175000000E+06, 7.074000000E+08, 7.074000000E+08,
                      0.000000000E+00, 0.000000000E+00, 0.000000000E+00,
                      0.000000000E+00, 0.000000000E+00, 0.000000000E+00,
                      0.000000000E+00, )),
          _F(  GROUP_MA = 'MAS7',     CARA = 'M_TR_D_N',
              VALE = ( 2.729000000E+06, 9.008000000E+08, 9.008000000E+08,
                      0.000000000E+00, 0.000000000E+00, 0.000000000E+00,
                      0.000000000E+00, 0.000000000E+00, 0.000000000E+00,
                      0.000000000E+00, )),
          _F(  GROUP_MA = 'MAS8',     CARA = 'M_TR_D_N',
              VALE = ( 4.020000000E+06, 9.107000000E+08, 9.107000000E+08,
                      0.000000000E+00, 0.000000000E+00, 0.000000000E+00,
                      0.000000000E+00, 0.000000000E+00, 0.000000000E+00,
                      0.000000000E+00, )),
          _F(  GROUP_MA = 'MAS9',     CARA = 'M_TR_D_N',
              VALE = ( 3.554000000E+06, 8.840000000E+08, 8.840000000E+08,
                      1.768000000E+09, 0.000000000E+00, 0.000000000E+00,
                      0.000000000E+00, 0.000000000E+00, 0.000000000E+00,
                      0.000000000E+00, )),
          _F(  GROUP_MA = 'MAS10',    CARA = 'M_TR_D_N',
              VALE = ( 1.000000000E+00, 1.000000000E+00, 1.000000000E+00,
                      2.000000000E+00, 0.000000000E+00, 0.000000000E+00,
                      0.000000000E+00, 0.000000000E+00, 0.000000000E+00,
                      0.000000000E+00, )),
          _F(  GROUP_MA = 'MAS11',    CARA = 'M_TR_D_N',
              VALE = ( 2.098000000E+06, 5.200000000E+08, 5.200000000E+08,
                      1.040000000E+09, 0.000000000E+00, 0.000000000E+00,
                      0.000000000E+00, 0.000000000E+00, 0.000000000E+00,
                      0.000000000E+00, )),
          _F(  GROUP_MA = 'MAS12',    CARA = 'M_TR_D_N',
              VALE = ( 5.246000000E+06, 1.393000000E+09, 1.393000000E+09,
                      2.786000000E+09, 0.000000000E+00, 0.000000000E+00,
                      0.000000000E+00, 0.000000000E+00, 0.000000000E+00,
                      0.000000000E+00, )),
          _F(  GROUP_MA = 'MAS13',    CARA = 'M_TR_D_N',
              VALE = ( 5.858000000E+06, 1.525000000E+09, 1.525000000E+09,
                      3.050000000E+09, 0.000000000E+00, 0.000000000E+00,
                      0.000000000E+00, 0.000000000E+00, 0.000000000E+00,
                      0.000000000E+00, )),
          _F(  GROUP_MA = 'MAS14',    CARA = 'M_TR_D_N',
              VALE = ( 6.810000000E+06, 1.740000000E+09, 1.740000000E+09,
                      3.480000000E+09, 0.000000000E+00, 0.000000000E+00,
                      0.000000000E+00, 0.000000000E+00, 0.000000000E+00,
                      0.000000000E+00, )),
          _F(  GROUP_MA = 'MAS15',    CARA = 'M_TR_D_N',
              VALE = ( 1.000000000E+07, 2.020000000E+09, 2.020000000E+09,
                      4.040000000E+09, 0.000000000E+00, 0.000000000E+00,
                      0.000000000E+00, 0.000000000E+00, 0.000000000E+00,
                      0.000000000E+00, )),
          _F(  GROUP_MA = 'MAS16',    CARA = 'M_TR_D_N',
              VALE = ( 3.000000000E+05, 3.120000000E+07, 2.690000000E+07,
                      5.810000000E+07, 0.000000000E+00, 0.000000000E+00,
                      0.000000000E+00, 0.000000000E+00, 0.000000000E+00,
                      0.000000000E+00, )),
          _F(  GROUP_MA = 'MAS17',    CARA = 'M_TR_D_N',
              VALE = ( 2.750000000E+05, 5.700000000E+06, 3.500000000E+06,
                      9.200000000E+06, 0.000000000E+00, 0.000000000E+00,
                      0.000000000E+00, 0.000000000E+00, 0.000000000E+00,
                      0.000000000E+00, )),
          _F(  GROUP_MA = 'MAS18',    CARA = 'M_TR_D_N',
              VALE = ( 2.960000000E+06, 4.340000000E+08, 4.260000000E+08,
                      8.600000000E+08, 0.000000000E+00, 0.000000000E+00,
                      0.000000000E+00, 0.000000000E+00, 0.000000000E+00,
                      0.000000000E+00, )),
          _F(  GROUP_MA = 'MAS19',    CARA = 'M_TR_D_N',
              VALE = ( 1.130000000E+06, 3.620000000E+07, 3.190000000E+07,
                      6.810000000E+07, 0.000000000E+00, 0.000000000E+00,
                      0.000000000E+00, 0.000000000E+00, 0.000000000E+00,
                      0.000000000E+00, )),
          _F(  GROUP_MA = 'MAS20',    CARA = 'M_TR_D_N',
              VALE = ( 4.230000000E+06, 5.360000000E+08, 5.560000000E+08,
                      1.091000000E+09, 0.000000000E+00, 0.000000000E+00,
                      0.000000000E+00, 0.000000000E+00, 0.000000000E+00,
                      0.000000000E+00, )),
          _F(  GROUP_MA = 'MAS21',    CARA = 'M_TR_D_N',
              VALE = ( 3.260000000E+06, 5.390000000E+07, 6.750000000E+07,
                      1.214000000E+08, 0.000000000E+00, 0.000000000E+00,
                      0.000000000E+00, 0.000000000E+00, 0.000000000E+00,
                      0.000000000E+00, )),
          _F(  GROUP_MA = 'MAS22',    CARA = 'M_TR_D_N',
              VALE = ( 4.930000000E+06, 5.500000000E+08, 5.280000000E+08,
                      1.078000000E+09, 0.000000000E+00, 0.000000000E+00,
                      0.000000000E+00, 0.000000000E+00, 0.000000000E+00,
                      0.000000000E+00, )),
          _F(  GROUP_MA = 'MAS23',    CARA = 'M_TR_D_N',
              VALE = ( 1.890000000E+06, 1.700000000E+08, 1.000000000E+00,
                      1.700000000E+08, 0.000000000E+00, 0.000000000E+00,
                      0.000000000E+00, 0.000000000E+00, 0.000000000E+00,
                      0.000000000E+00, )),
          _F(  GROUP_MA = 'MAS24',    CARA = 'M_TR_D_N',
              VALE = ( 6.980000000E+06, 9.130000000E+08, 6.930000000E+08,
                      1.606000000E+09, 0.000000000E+00, 0.000000000E+00,
                      0.000000000E+00, 0.000000000E+00, 0.000000000E+00,
                      0.000000000E+00, )),
          _F(  GROUP_MA = 'MAS25',    CARA = 'M_TR_D_N',
              VALE = ( 3.800000000E+05, 1.000000000E+00, 1.000000000E+00,
                      1.000000000E+00, 0.000000000E+00, 0.000000000E+00,
                      0.000000000E+00, 0.000000000E+00, 0.000000000E+00,
                      0.000000000E+00, )),
          _F(  GROUP_MA = 'MAS26',    CARA = 'M_TR_D_N',
              VALE = ( 2.700000000E+05, 1.000000000E+00, 1.000000000E+00,
                      1.000000000E+00, 0.000000000E+00, 0.000000000E+00,
                      0.000000000E+00, 0.000000000E+00, 0.000000000E+00,
                      0.000000000E+00, )),
          _F(  GROUP_MA = 'MAS27',    CARA = 'M_TR_D_N',
              VALE = ( 1.000000000E+05, 1.000000000E+00, 1.000000000E+00,
                      1.000000000E+00, 0.000000000E+00, 0.000000000E+00,
                      0.000000000E+00, 0.000000000E+00, 0.000000000E+00,
                      0.000000000E+00, )),
          # FIN DES CARACTERISTIQUES DES MASSES

            # LIAISONS SIMPLES NOEUD-NOEUD

          _F(  GROUP_MA = 'RLN_1',    CARA = 'K_TR_D_L',
            VALE = ( 1.000000000E+00, 1.320000000E+10, 7.080000000E+08,
                   1.424000000E+10, 1.000000000E+00, 1.000000000E+13,),
                  REPERE = 'GLOBAL'),
          _F(  GROUP_MA = 'RLN_2',    CARA = 'K_TR_D_L',
            VALE = ( 7.800000000E+10, 1.040000000E+11, 6.160000000E+09,
                   1.632000000E+11, 5.560000000E+10, 1.000000000E+14,),
                  REPERE = 'GLOBAL'),
          _F(  GROUP_MA = 'RLN_3',    CARA = 'K_TR_D_L',
            VALE = ( 1.692000000E+11, 1.840000000E+11, 1.872000000E+10,
                   7.600000000E+11, 1.800000000E+11, 1.000000000E+14,),
                  REPERE = 'GLOBAL'),
          _F(  GROUP_MA = 'RLN_4',    CARA = 'K_TR_D_L',
            VALE = ( 1.000000000E+16, 2.000000000E+11, 5.872000000E+10,
                   4.039000000E+12, 1.000000000E+16, 1.000000000E+14,),
                  REPERE = 'GLOBAL'),
          _F(  GROUP_MA = 'RLN_5',    CARA = 'K_TR_D_L',
            VALE = ( 1.900000000E+11, 1.900000000E+11, 2.000000000E+09,
                   5.000000000E+11, 5.000000000E+11, 1.000000000E+14,),
                  REPERE = 'GLOBAL'),
                                     ),
         RIGI_MISS_3D=_F(
              GROUP_MA_POI1='PRADIER',
              GROUP_MA_SEG2='LRADIER',
              FREQ_EXTR=4.0, UNITE_RESU_IMPE=25)
               );

DEFI_FICHIER(ACTION='LIBERER',UNITE=25,);

ASSEMBLAGE(MODELE=STICKMOD,
                CHAM_MATER=CHAMPMAT,
                CARA_ELEM=CARA_EL3,
                CHARGE=COND_LI2,
                NUME_DDL=CO('NUMEROTB'),
                MATR_ASSE=(_F(MATRICE=CO('MATRRIGB'),
                              OPTION='RIGI_MECA',),
                           _F(MATRICE=CO('MATRMASB'),
                              OPTION='MASS_MECA',),),);

#
# CALCUL DES MODES :
#---------------------------------------------

MODE3=CALC_MODES( MATR_RIGI=MATRRIGB,
                  MATR_MASS=MATRMASB,
                  CALC_FREQ=_F( NMAX_FREQ = 10 ),
                  #VERI_MODE=_F(  STOP_ERREUR='NON')
                 );



TEST_RESU(RESU=(_F(NUME_ORDRE=1,
                   PARA='FREQ',
                   RESULTAT=MODE3,
                   VALE_CALC=3.8593500111766,
                   CRITERE='RELATIF',
                   ),
                _F(NUME_ORDRE=2,
                   PARA='FREQ',
                   RESULTAT=MODE3,
                   VALE_CALC=3.867079717688,
                   CRITERE='RELATIF',
                   ),
                _F(NUME_ORDRE=3,
                   PARA='FREQ',
                   RESULTAT=MODE3,
                   VALE_CALC=4.7796869948829,
                   CRITERE='RELATIF',
                   ),
                _F(NUME_ORDRE=4,
                   PARA='FREQ',
                   RESULTAT=MODE3,
                   VALE_CALC=4.7813333739105,
                   CRITERE='RELATIF',
                   ),
                _F(NUME_ORDRE=5,
                   PARA='FREQ',
                   RESULTAT=MODE3,
                   VALE_CALC=7.059482646682,
                   CRITERE='RELATIF',
                   ),
                ),
          )
FIN( );
#
