# TITRE CRITERES GEOMETRIQUES DANS DEFI_GROUP EN 3D
# ======================================================================
# COPYRIGHT (C) 1991 - 2013  EDF R&D                  WWW.CODE-ASTER.ORG
# THIS PROGRAM IS FREE SOFTWARE; YOU CAN REDISTRIBUTE IT AND/OR MODIFY
# IT UNDER THE TERMS OF THE GNU GENERAL PUBLIC LICENSE AS PUBLISHED BY
# THE FREE SOFTWARE FOUNDATION; EITHER VERSION 2 OF THE LICENSE, OR
# (AT YOUR OPTION) ANY LATER VERSION.
#
# THIS PROGRAM IS DISTRIBUTED IN THE HOPE THAT IT WILL BE USEFUL, BUT
# WITHOUT ANY WARRANTY; WITHOUT EVEN THE IMPLIED WARRANTY OF
# MERCHANTABILITY OR FITNESS FOR A PARTICULAR PURPOSE. SEE THE GNU
# GENERAL PUBLIC LICENSE FOR MORE DETAILS.
#
# YOU SHOULD HAVE RECEIVED A COPY OF THE GNU GENERAL PUBLIC LICENSE
# ALONG WITH THIS PROGRAM; IF NOT, WRITE TO EDF R&D CODE_ASTER,
#    1 AVENUE DU GENERAL DE GAULLE, 92141 CLAMART CEDEX, FRANCE.
# ======================================================================
#CAS_TEST__: ZZZZ106A
#  MAILLAGE : PLAQUE CARREE MINCE (C'EST LE MAILLAGE DU SDLS100B)
# DIMENSION 10*10*1 M -- POSEE SUR UN COTE+ROTY BLOQUEE
# MODELISATION DKT : 25 NOEUDS -- 32 MAILLES TRIA3
#=======================================================================


DEBUT(CODE=_F(NOM='ZZZZ106A', NIV_PUB_WEB='INTERNET'), DEBUG=_F(SDVERI='OUI'))

MA=LIRE_MAILLAGE(INFO=2, )
MA1=LIRE_MAILLAGE(UNITE=14 )

MA=DEFI_GROUP(  reuse=MA,   MAILLAGE=MA,
                CREA_GROUP_MA=_F(  NOM = 'GXXXXXX_TOUT', TOUT = 'OUI'))

MA=DEFI_GROUP(  reuse=MA,   MAILLAGE=MA,
                CREA_GROUP_MA=( _F(  NOM = 'GXXXXXX_GD0',
                                     OPTION = 'SPHERE',
                                     GROUP_NO_CENTRE = 'GXXXXXX_GRN1',
                                     RAYON = 4.0,
                                     CRIT_NOEUD ='AU_MOINS_UN',),
                                _F(  NOM = 'GXXXXXX_GD1',
                                     OPTION = 'SPHERE',
                                     GROUP_NO_CENTRE = 'GXXXXXX_GRN1',
                                     RAYON =  4.0,
                                     CRIT_NOEUD ='TOUS',),
                                _F(  NOM = 'GXXXXXX_GD2',
                                   OPTION = 'SPHERE',
                                   GROUP_NO_CENTRE = 'GXXXXXX_GRN1',
                                   RAYON = 4.0,
                                   CRIT_NOEUD ='MAJORITE',),
                                _F(  NOM = 'GXXXXXX_GC1',
                                     OPTION = 'CYLINDRE',
                                     NOEUD_CENTRE = 'N1',
                                     RAYON = 4.,
                                     ANGL_NAUT = (0.,90.,),
                                     CRIT_NOEUD ='AU_MOINS_UN',),
                                _F(  NOM = 'GXXXXXX_GC2',
                                       OPTION = 'CYLINDRE',
                                       NOEUD_CENTRE = 'N1',
                                       RAYON = 4.,
                                       ANGL_NAUT = (0.,90.,),
                                       CRIT_NOEUD ='TOUS',),
                               _F(  NOM = 'GXXXXXX_GC3',
                                       OPTION = 'CYLINDRE',
                                       NOEUD_CENTRE = 'N1',
                                       RAYON = 4.,
                                       ANGL_NAUT = (0.,90.,),
                                       CRIT_NOEUD ='MAJORITE',),
                                _F(  NOM = 'GXXXXXX_GT1',
                                       OPTION = 'BANDE',
                                       NOEUD_CENTRE = 'N1',
                                       DIST = 4.,
                                       VECT_NORMALE = (0.,1.,0.,),
                                       CRIT_NOEUD ='AU_MOINS_UN',),
                                _F(  NOM = 'GXXXXXX_GT2',
                                       OPTION = 'BANDE',
                                       NOEUD_CENTRE = 'N1',
                                       DIST = 4.,
                                       VECT_NORMALE = (0.,1.,0.,),
                                       CRIT_NOEUD ='TOUS',),
                                _F(  NOM = 'GXXXXXX_GT3',
                                       OPTION = 'BANDE',
                                       NOEUD_CENTRE = 'N1',
                                       DIST = 4.,
                                       VECT_NORMALE = (0.,1.,0.,),
                                       CRIT_NOEUD ='MAJORITE',),
                                _F(  NOM = 'GXXXXXX_GM4',
                                       OPTION = 'FACE_NORMALE',
                                       VECT_NORMALE = (0.,0.,1.,)),),
                CREA_GROUP_NO=(
                                _F(  NOM = 'GXXXXXX_GN1',
                                       OPTION = 'ENV_SPHERE',
                                       NOEUD_CENTRE = 'N1',
                                       RAYON = 2.5,
                                       PRECISION = 0.1),
                                _F(  NOM = 'GXXXXXX_GN2',
                                       OPTION = 'ENV_CYLINDRE',
                                       NOEUD_CENTRE = 'N1',
                                       RAYON = 2.5,
                                       VECT_NORMALE = (0.,0.,1.,),
                                       PRECISION = 0.1),
                                _F(  NOM = 'GXXXXXX_GN3',
                                       OPTION = 'PLAN',
                                       NOEUD_CENTRE = 'N14',
                                       VECT_NORMALE = (1.,0.,0.,),
                                       PRECISION = 0.1),
                                ))

# -------  VALIDATION DE : DEFI_GROUP / INCLUSION :

# le group_ma ABCD de MA1 ne contient qu'1 quadrangle (ABCD) tel que
# seuls 2 triangles TR11A et TR11B y sont totalement inclus :
DEFI_GROUP(reuse=MA,   MAILLAGE=MA,
             CREA_GROUP_NO=  _F(  NOM = 'GXXXXXX_TR11AB', OPTION = 'INCLUSION',
                                  MAILLAGE_INCL = MA1,
                                  GROUP_MA_INCL = 'GXXXXXX_ABCD',
                                  GROUP_MA      = 'GXXXXXX_CARRE11',
                                  CAS_FIGURE    = '2D'))

DEFI_GROUP(reuse=MA,   MAILLAGE=MA,
            CREA_GROUP_MA=_F( NOM = 'GXXXXXX_TR11AB',OPTION='APPUI',
                              TYPE_APPUI='TOUT', GROUP_NO='GXXXXXX_TR11AB',))


# -------  VALIDATION DE : DEFI_GROUP / DETR_GROUP_XX -----------

MA=DEFI_GROUP(  reuse=MA,   MAILLAGE=MA,
                DETR_GROUP_NO=(_F(NOM=('GXXXXXX_GN1','GXXXXXX_GN32'),),
                               _F(NOM=('GXXXXXX_GN3','GXXXXXX_GN58'),),),
                DETR_GROUP_MA=_F(NOM=('GXXXXXX_GM1','GXXXXXX_GM3','GXXXXXX_GM58','GXXXXXX_GM2'),),
                CREA_GROUP_NO=_F( NOM = 'GXXXXXX_GN3',
                                  OPTION = 'PLAN',
                                  NOEUD_CENTRE = 'N14',
                                  VECT_NORMALE = (1.,0.,0.,),
                                  PRECISION = 0.1),
                CREA_GROUP_MA=_F(  NOM = 'GXXXXXX_GM2',
                                   OPTION = 'CYLINDRE',
                                   NOEUD_CENTRE = 'N1',
                                   RAYON = 2.,
                                   ANGL_NAUT = (0.,90.,),),)

MA=DEFI_GROUP(  reuse=MA,   MAILLAGE=MA,
                CREA_GROUP_NO=_F( NOM = 'GXXXXXX_GN1',
                                  OPTION = 'ENV_SPHERE',
                                  NOEUD_CENTRE = 'N1',
                                  RAYON = 2.5,
                                  PRECISION = 0.1),
                CREA_GROUP_MA=(_F(  NOM = 'GXXXXXX_GM1',
                                       OPTION = 'SPHERE',
                                       GROUP_NO_CENTRE = 'GXXXXXX_GRN1',
                                       RAYON = 2.),
                               _F(  NOM = 'GXXXXXX_GM3',
                                       OPTION = 'BANDE',
                                       NOEUD_CENTRE = 'N1',
                                       DIST = 2.,
                                       VECT_NORMALE = (0.,1.,0.,),),),)

# -------  FIN VALIDATION DE : DEFI_GROUP / DETR_GROUP_XX --------

MO=AFFE_MODELE(  MAILLAGE=MA,
                  AFFE=_F(  TOUT = 'OUI',      PHENOMENE = 'MECANIQUE',
                  MODELISATION = 'DKT') )

CARELEM=AFFE_CARA_ELEM(  MODELE=MO,
                         COQUE=_F(  GROUP_MA = 'GXXXXXX_TOUT',
                                    EPAIS = 1.) )

MAT=DEFI_MATERIAU( ELAS=_F(  E = 1.0,  NU = 0.3) )

CHMAT=AFFE_MATERIAU(  MAILLAGE=MA,
                       AFFE=_F(  TOUT = 'OUI',  MATER = MAT) )

# --------------------------------------------------------------------
#
# ---- PLAQUE POSEE SUR UN COTE + ROT/Y BLOQUEE
# --------------------------------------------------------------------
#
# ---- CONDITIONS AUX LIMITES EN DEPLACEMENTS
# ----
#
#    --- CL1 : LES NOEUDS SONT REPERES 'A LA MAIN'

CLDIRI1=AFFE_CHAR_MECA(  MODELE=MO,
                         DDL_IMPO=_F(  GROUP_NO = 'GXXXXXX_COTE',
                                       DX = 0., DY = 0., DZ = 0., DRY = 0.))

#
# ---- CHARGEMENT EN PRESSION SUR LES MAILLES AUXQUELLES
# ---- APPARTIENT LE NOEUD MILIEU
#
#    --- CHARGEMENT 1 : LES MAILLES SONT REPEREES 'A LA MAIN'


CHMEC1=AFFE_CHAR_MECA(  MODELE=MO,
                        DDL_IMPO=_F(  GROUP_NO = 'GXXXXXX_COTE',
                                      DX = 0., DY = 0., DZ = 0., DRY = 0.),
                        FORCE_COQUE=_F( MAILLE = ('TR6A','TR6B','TR7A','TR10B',
                                                  'TR11A','TR11B',),
                                        PRES = 1.) )

#
#    --------------------------------------------------
#    --- CHARGEMENT 2 : LES MAILLES SONT DEFINIES COMME APPARTENANT
#    ---                A L'INTERSECTION DE LA PLAQUE ET DE LA SPHERE
#    ---                DE CENTRE MILIEU DE LA PLAQUE ET DE RAYON 2.

CHMEC2=AFFE_CHAR_MECA(  MODELE=MO,
                         FORCE_COQUE=_F( GROUP_MA = 'GXXXXXX_GM1',  PRES = -1.) )

#    --------------------------------------------------
#    --- CHARGEMENT 3 : LES MAILLES SONT DEFINIES COMME APPARTENANT
#    ---                A L'INTERSECTION DE LA PLAQUE ET DU CYLINDRE
#    ---                D'AXE PERPENDICULAIRE A LA PLAQUE ET PASSANT
#    ---                PAR LE MILIEU DE LA PLAQUE ET DE RAYON 2.

CHMEC3=AFFE_CHAR_MECA(  MODELE=MO,
                         FORCE_COQUE=_F( GROUP_MA = 'GXXXXXX_GM2',  PRES = -1.) )

#    --------------------------------------------------
#    --- CHARGEMENT 4 : LES MAILLES SONT REPEREES 'A LA MAIN'
#
# ---- ON CHARGE EN PRESSION  LES MAILLES APPARTENANT
# ---- A UNE BANDE PARALLELE A L'AXE X , DE LARGEUR 4., DONT
# ---- LA LIGNE MOYENNE PASEE PAR LE CENTRE DE LA PLAQUE.
#
CHMEC4=AFFE_CHAR_MECA(  MODELE=MO,
                        DDL_IMPO=_F(  GROUP_NO = 'GXXXXXX_COTE',
                                      DX = 0., DY = 0., DZ = 0., DRY = 0.),
                        FORCE_COQUE=_F( MAILLE = ('TR5A','TR5B','TR6A','TR6B','TR7A',
                                                  'TR7B','TR8A','TR8B','TR9A','TR9B',
                                                  'TR10A','TR10B','TR11A','TR11B',
                                                  'TR12A','TR12B',),
                                        PRES = 1.) )

#
#    --------------------------------------------------
#    --- CHARGEMENT 5 : LES MAILLES SONT DEFINIES COMME APPARTENANT
#    ---                 A LA BANDE DECRITE AU-DESSUS
#
CHMEC5=AFFE_CHAR_MECA(  MODELE=MO,
                         FORCE_COQUE=_F( GROUP_MA = 'GXXXXXX_GM3',  PRES = -1.))

#
#    --------------------------------------------------
#    --- CHARGEMENT 6 : ON IMPOSE UN PRESSION DE 1 SUR TOUTES
#    ---                 LES MAILLES
#
CHMEC6=AFFE_CHAR_MECA(  MODELE=MO,
                        FORCE_COQUE=_F(  GROUP_MA = 'GXXXXXX_TOUT',
                                         PRES = 1.))

#
#    --------------------------------------------------
#    --- CHARGEMENT 7 : ON IMPOSE UN PRESSION DE -1 SUR TOUTES
#    ---                 LES MAILLES
#
CHMEC7=AFFE_CHAR_MECA(  MODELE=MO,
                        FORCE_COQUE=_F( GROUP_MA = 'GXXXXXX_GM4', PRES = -1.))

#
#    --------------------------------------------------
#    --- CHARGEMENT 8 : ON IMPOSE UNE FORCE NODALE EGALE A 1.
#    ---                 SUR LES NOEUDS 3,5,7,9
#
CHMEC8=AFFE_CHAR_MECA(  MODELE=MO,
                        FORCE_NODALE=_F( NOEUD = ('N3','N5','N7','N9',),
                                         FZ = 1.))

#
#    --------------------------------------------------
#    --- CHARGEMENT 9 : ON IMPOSE UNE FORCE NODALE EGALE A -1.
#    ---                 SUR LES NOEUDS 3,5,7,9 DU GROUP_NO GXXXXXX_GN1
#
CHMEC9=AFFE_CHAR_MECA(  MODELE=MO,
                        FORCE_NODALE=_F( GROUP_NO = 'GXXXXXX_GN1',
                                         FZ = -1.))

#
#    --------------------------------------------------
#    --- CHARGEMENT 10 : ON IMPOSE UNE FORCE NODALE EGALE A -1.
#    ---                 SUR LES NOEUDS 3,5,7,9 DU GROUP_NO GXXXXXX_GN2
#
CHMEC10=AFFE_CHAR_MECA(  MODELE=MO,
                         FORCE_NODALE=_F( GROUP_NO = 'GXXXXXX_GN2',
                                          FZ = -1.))

#
#    --------------------------------------------------
#    --- CHARGEMENT 11 : ON IMPOSE UNE FORCE NODALE EGALE A -1.
#    ---                 SUR LES NOEUDS 14,15,16,17,18 DU GROUP_NO GXXXXXX_GN3
#
CHMEC11=AFFE_CHAR_MECA(  MODELE=MO,
                         FORCE_NODALE=_F( GROUP_NO = 'GXXXXXX_GN3',
                                          FZ = -1.))

#
#    --------------------------------------------------
#    --- CHARGEMENT 12 : ON IMPOSE UNE FORCE NODALE EGALE A 1.
#    ---                 SUR LES NOEUDS 14,15,16,17,18
#
CHMEC12=AFFE_CHAR_MECA(  MODELE=MO,
                         FORCE_NODALE=_F( NOEUD = ('N14','N15','N16','N17','N18',),
                                          FZ = 1.))
#
#    --------------------------------------------------
#    --- CHARGEMENT 13 : ON IMPOSE UNE PRESSION EGALE A 1.
#    ---                 SUR LES MAILLES TR11A et TR11B
#
CHMEC13=AFFE_CHAR_MECA(  MODELE=MO,
                        FORCE_COQUE=_F(  MAILLE = ('TR11A','TR11B'),
                                         PRES = 1.))
#
#    --------------------------------------------------
#    --- CHARGEMENT 14 : ON IMPOSE UNE PRESSION EGALE A -1.
#    ---                 SUR LE GROUP_MA GXXXXXX_TR11AB
#
CHMEC14=AFFE_CHAR_MECA(  MODELE=MO,
                        FORCE_COQUE=_F(  GROUP_MA = 'GXXXXXX_TR11AB',
                                         PRES = -1.))

#
#--------------------------------------------------------------------
#--------------------------------------------------------------------
#
#    --- PREMIERE RESOLUTION : ON SUPERPOSE LES CHARGEMENTS 1 ET 2
#

RESU1=MECA_STATIQUE(  MODELE=MO,
                      CHAM_MATER=CHMAT,
                      CARA_ELEM =CARELEM,
                      EXCIT=(_F(  CHARGE = CHMEC1),
                             _F(  CHARGE = CHMEC2))  )

#    --------------------------------------------------
#
#    --- DEUXIEME RESOLUTION : ON SUPERPOSE LES CHARGEMENTS 1 ET 3
#

RESU2=MECA_STATIQUE(  MODELE=MO,
                      CHAM_MATER=CHMAT,
                      CARA_ELEM =CARELEM,
                      EXCIT=(_F(  CHARGE = CHMEC1),
                             _F(  CHARGE = CHMEC3))  )

#    --------------------------------------------------
#
#    --- TROISIEME RESOLUTION : ON SUPERPOSE LES CHARGEMENTS 4 ET 5
#

RESU3=MECA_STATIQUE(  MODELE=MO,
                      CHAM_MATER=CHMAT,
                      CARA_ELEM =CARELEM,
                      EXCIT=(_F(  CHARGE = CHMEC4),
                             _F(  CHARGE = CHMEC5))  )

#    --------------------------------------------------
#
#    --- QUATRIEME RESOLUTION : ON SUPERPOSE LES CHARGEMENTS 6 ET 7
#                               AVEC LES CONDITIONS DIRICHLET CLDIRI1
#

RESU4=MECA_STATIQUE(  MODELE=MO,
                      CHAM_MATER=CHMAT,
                      CARA_ELEM =CARELEM,
                      EXCIT=(_F(  CHARGE = CLDIRI1),
                             _F(  CHARGE = CHMEC6),
                             _F(  CHARGE = CHMEC7))  )

#    --------------------------------------------------
#
#    --- CINQUIEME RESOLUTION : ON SUPERPOSE LES CHARGEMENTS 8 ET 9
#                               AVEC LES CONDITIONS DIRICHLET CLDIRI1
#

RESU5=MECA_STATIQUE(  MODELE=MO,
                      CHAM_MATER=CHMAT,
                      CARA_ELEM =CARELEM,
                      EXCIT=(_F(  CHARGE = CLDIRI1),
                             _F(  CHARGE = CHMEC8),
                             _F(  CHARGE = CHMEC9))  )

#    --------------------------------------------------
#
#    --- SIXIEME RESOLUTION : ON SUPERPOSE LES CHARGEMENTS 8 ET 10
#                               AVEC LES CONDITIONS DIRICHLET CLDIRI1
#

RESU6=MECA_STATIQUE(  MODELE=MO,
                      CHAM_MATER=CHMAT,
                      CARA_ELEM =CARELEM,
                      EXCIT=(_F(  CHARGE = CLDIRI1),
                             _F(  CHARGE = CHMEC8),
                             _F(  CHARGE = CHMEC10))  )

#    --------------------------------------------------
#
#    --- SEPTIEME RESOLUTION : ON SUPERPOSE LES CHARGEMENTS 11 ET 12
#                               AVEC LES CONDITIONS DIRICHLET CLDIRI1
#

RESU7=MECA_STATIQUE(  MODELE=MO,
                      CHAM_MATER=CHMAT,
                      CARA_ELEM =CARELEM,
                      EXCIT=(_F(  CHARGE = CLDIRI1),
                             _F(  CHARGE = CHMEC11),
                             _F(  CHARGE = CHMEC12))  )
#    --------------------------------------------------
#
#    --- HUITIEME RESOLUTION : ON SUPERPOSE LES CHARGEMENTS 13 ET 14
#                               AVEC LES CONDITIONS DIRICHLET CLDIRI1
#

RESU8=MECA_STATIQUE(  MODELE=MO,
                      CHAM_MATER=CHMAT,
                      CARA_ELEM =CARELEM,
                      EXCIT=(_F(  CHARGE = CLDIRI1),
                             _F(  CHARGE = CHMEC13),
                             _F(  CHARGE = CHMEC14))  )

#
#--------------------------------------------------------------------
#--------------------------------------------------------------------
#
#   ON TESTE LA NULLITE DES CHAMPS DE DEPLACEMENTS
#

TEST_RESU(RESU=(_F(NUME_ORDRE=1,
                   REFERENCE='ANALYTIQUE',
                   RESULTAT=RESU1,
                   NOM_CHAM='DEPL',
                   NOEUD='N18',
                   NOM_CMP='DZ',
                   VALE_CALC= 0.0E+00,
                   VALE_REFE=0.0,
                   CRITERE='ABSOLU',
                   PRECISION=1.E-10,),
                _F(NUME_ORDRE=1,
                   REFERENCE='ANALYTIQUE',
                   RESULTAT=RESU2,
                   NOM_CHAM='DEPL',
                   NOEUD='N18',
                   NOM_CMP='DZ',
                   VALE_CALC= 0.0E+00,
                   VALE_REFE=0.0,
                   CRITERE='ABSOLU',
                   PRECISION=1.E-10,),
                _F(NUME_ORDRE=1,
                   REFERENCE='ANALYTIQUE',
                   RESULTAT=RESU3,
                   NOM_CHAM='DEPL',
                   NOEUD='N18',
                   NOM_CMP='DZ',
                   VALE_CALC= 0.0E+00,
                   VALE_REFE=0.0,
                   CRITERE='ABSOLU',
                   PRECISION=1.E-10,),
                _F(NUME_ORDRE=1,
                   REFERENCE='ANALYTIQUE',
                   RESULTAT=RESU4,
                   NOM_CHAM='DEPL',
                   NOEUD='N18',
                   NOM_CMP='DZ',
                   VALE_CALC= 0.0E+00,
                   VALE_REFE=0.0,
                   CRITERE='ABSOLU',
                   PRECISION=1.E-10,),
                _F(NUME_ORDRE=1,
                   REFERENCE='ANALYTIQUE',
                   RESULTAT=RESU5,
                   NOM_CHAM='DEPL',
                   NOEUD='N18',
                   NOM_CMP='DZ',
                   VALE_CALC= 0.0E+00,
                   VALE_REFE=0.0,
                   CRITERE='ABSOLU',
                   PRECISION=1.E-10,),
                _F(NUME_ORDRE=1,
                   REFERENCE='ANALYTIQUE',
                   RESULTAT=RESU6,
                   NOM_CHAM='DEPL',
                   NOEUD='N18',
                   NOM_CMP='DZ',
                   VALE_CALC= 0.0E+00,
                   VALE_REFE=0.0,
                   CRITERE='ABSOLU',
                   PRECISION=1.E-10,),
                _F(NUME_ORDRE=1,
                   REFERENCE='ANALYTIQUE',
                   RESULTAT=RESU7,
                   NOM_CHAM='DEPL',
                   NOEUD='N18',
                   NOM_CMP='DZ',
                   VALE_CALC= 0.0E+00,
                   VALE_REFE=0.0,
                   CRITERE='ABSOLU',
                   PRECISION=1.E-10,),
                _F(NUME_ORDRE=1,
                   REFERENCE='ANALYTIQUE',
                   RESULTAT=RESU8,
                   NOM_CHAM='DEPL',
                   NOEUD='N18',
                   NOM_CMP='DZ',
                   VALE_CALC= 0.0E+00,
                   VALE_REFE=0.0,
                   CRITERE='ABSOLU',
                   PRECISION=1.E-10,),
                ),
          )

FIN()
#
