# COPYRIGHT (C) 1991 - 2016  EDF R&D                WWW.CODE-ASTER.ORG
#
# THIS PROGRAM IS FREE SOFTWARE; YOU CAN REDISTRIBUTE IT AND/OR MODIFY
# IT UNDER THE TERMS OF THE GNU GENERAL PUBLIC LICENSE AS PUBLISHED BY
# THE FREE SOFTWARE FOUNDATION; EITHER VERSION 2 OF THE LICENSE, OR
# (AT YOUR OPTION) ANY LATER VERSION.
#
# THIS PROGRAM IS DISTRIBUTED IN THE HOPE THAT IT WILL BE USEFUL, BUT
# WITHOUT ANY WARRANTY; WITHOUT EVEN THE IMPLIED WARRANTY OF
# MERCHANTABILITY OR FITNESS FOR A PARTICULAR PURPOSE. SEE THE GNU
# GENERAL PUBLIC LICENSE FOR MORE DETAILS.
#
# YOU SHOULD HAVE RECEIVED A COPY OF THE GNU GENERAL PUBLIC LICENSE
# ALONG WITH THIS PROGRAM; IF NOT, WRITE TO EDF R&D CODE_ASTER,
# 1 AVENUE DU GENERAL DE GAULLE, 92141 CLAMART CEDEX, FRANCE.
#
# ======================================================================
# ======================================================================

DEBUT(CODE=_F(
              NIV_PUB_WEB='INTERNET',),
      IGNORE_ALARM='HOMARD0_9',);

MA_INIT=LIRE_MAILLAGE(UNITE=20,
                      FORMAT='MED',);
MA_INIT = MODI_MAILLAGE( reuse = MA_INIT,
                    MAILLAGE     = MA_INIT,
                    ORIE_PEAU_2D = _F( GROUP_MA  = ('GAUCHE','DROITE','HAUT','BAS',),),);

#################################################################
### RAFFINEMENT #################################################
### TEST DE USAGE_CMP='RELATIF' / TEST DE USAGE_CMP='ABSOLU' ####
###ET CHAM_CAT='DIAMETRE' #######################################
#################################################################

MO=AFFE_MODELE(MAILLAGE=MA_INIT,
               AFFE=_F(TOUT='OUI',
                       PHENOMENE='MECANIQUE',
                       MODELISATION='D_PLAN',),);

CHA_INDI=CREA_CHAMP(TYPE_CHAM='ELNO_VARI_R',
                    OPERATION='AFFE',
                    MODELE=MO,
                    AFFE=(_F(GROUP_MA='FACE_1',
                             NOM_CMP='V1',
                             VALE=-1.0,),
                          _F(GROUP_MA='FACE_2',
                             NOM_CMP='V1',
                             VALE=-2.0,),),);

MACR_ADAP_MAIL(MAILLAGE_N=MA_INIT,
               MAILLAGE_NP1=CO('MA_R1_RE'),
               ADAPTATION='RAFFINEMENT',
               CHAM_GD=CHA_INDI,
               USAGE_CMP='RELATIF',
               CRIT_RAFF_PE=0.5,
               ADD_CHAM=(_F(CHAM_GD=CO('D_R1_RE'),
                            CHAM_CAT='DIAMETRE',),),);
#IMPR_RESU(FORMAT='MED',RESU=_F(MAILLAGE=MA_R1_RE,),);
#IMPR_RESU(RESU=_F(MAILLAGE=MA_R1_RE,),);

MACR_ADAP_MAIL(MAILLAGE_N=MA_INIT,
               MAILLAGE_NP1=CO('MA_R1_AB'),
               ADAPTATION='RAFFINEMENT',
               CHAM_GD=CHA_INDI,
               USAGE_CMP='ABSOLU',
               CRIT_RAFF_PE=0.5,
               ADD_CHAM=_F(CHAM_GD=CO('D_R1_AB'),
                           CHAM_CAT='DIAMETRE',),);
#IMPR_RESU(FORMAT='MED',RESU=_F(MAILLAGE=MA_R1_AB,),);
#IMPR_RESU(RESU=_F(MAILLAGE=MA_R1_AB,),);

TEST_RESU(CARTE=(_F(REFERENCE='ANALYTIQUE',
                    NOM_CMP='X1',
                    PRECISION=9.9999999999999995E-07,
                    VALE_CALC=0.707106781,
                    VALE_REFE=0.70710678100000002,
                    MAILLE='M23',
                    CHAM_GD=D_R1_RE,),
                 _F(REFERENCE='ANALYTIQUE',
                    NOM_CMP='X1',
                    PRECISION=9.9999999999999995E-07,
                    VALE_CALC=0.707106781,
                    VALE_REFE=0.70710678100000002,
                    MAILLE='M15',
                    CHAM_GD=D_R1_RE,),
                 _F(REFERENCE='ANALYTIQUE',
                    NOM_CMP='X1',
                    PRECISION=9.9999999999999995E-07,
                    VALE_CALC=0.707106781,
                    VALE_REFE=0.70710678100000002,
                    MAILLE='M12',
                    CHAM_GD=D_R1_AB,),
                 _F(REFERENCE='ANALYTIQUE',
                    NOM_CMP='X1',
                    PRECISION=9.9999999999999995E-07,
                    VALE_CALC=1.118033989,
                    VALE_REFE=1.118033989,
                    MAILLE='M20',
                    CHAM_GD=D_R1_AB,),
                 ),
          )

#################################################################
### MACR_ADAP_MAIL ##############################################
### LANGUE = 'ANGLAIS' / ADAPTATION = 'RIEN' ####################
#################################################################

MACR_ADAP_MAIL(MAILLAGE_N=MA_INIT,
               LANGUE = 'ANGLAIS',
               MAILLAGE_NP1=CO('MA_INIT2'),
               ADAPTATION='RIEN',)
#IMPR_RESU(FORMAT='MED',RESU=_F(MAILLAGE=MA_INIT2,),);
#IMPR_RESU(RESU=_F(MAILLAGE=MA_INIT2,),);

#################################################################
### DEUX CYCLES DE RAFFINEMENT-DERAFFINEMENT ####################
### TEST DE NIVE_MIN ET CHAM_CAT='NIVEAU' #######################
#################################################################

MACR_ADAP_MAIL(MAILLAGE_N=MA_INIT,
               MAILLAGE_NP1=CO('MA_R1'),
               ADAPTATION='RAFFINEMENT_UNIFORME',
               ADD_CHAM=_F(CHAM_GD=CO('N_R1'),
                           CHAM_CAT='NIVEAU',),);
#IMPR_RESU(FORMAT='MED',RESU=_F(MAILLAGE=MA_R1,),);
#IMPR_RESU(RESU=_F(MAILLAGE=MA_R1,),);

MACR_ADAP_MAIL(MAILLAGE_N=MA_R1,
               MAILLAGE_NP1=CO('MA_D1'),
               ADAPTATION='DERAFFINEMENT',
               CHAM_GD=N_R1,
               CRIT_DERA_ABS=3.,
               NIVE_MIN=1,);
#IMPR_RESU(FORMAT='MED',RESU=_F(MAILLAGE=MA_D1,),);
#IMPR_RESU(RESU=_F(MAILLAGE=MA_D1,),);

MACR_ADAP_MAIL(MAILLAGE_N=MA_D1,
               MAILLAGE_NP1=CO('MA_R2'),
               ADAPTATION='RAFFINEMENT_UNIFORME',
               ADD_CHAM=_F(CHAM_GD=CO('N_R2'),
                           CHAM_CAT='NIVEAU',),);
#IMPR_RESU(FORMAT='MED',RESU=_F(MAILLAGE=MA_R2,),);
#IMPR_RESU(RESU=_F(MAILLAGE=MA_R2,),);

MACR_ADAP_MAIL(MAILLAGE_N=MA_R2,
               MAILLAGE_NP1=CO('MA_D2'),
               ADAPTATION='DERAFFINEMENT',
               CHAM_GD=N_R2,
               CRIT_DERA_ABS=3.,
               NIVE_MIN=1,
               ADD_CHAM=_F(CHAM_GD=CO('N_D2'),
                           CHAM_CAT='NIVEAU',),);
#IMPR_RESU(FORMAT='MED',RESU=_F(MAILLAGE=MA_D2,),);
#IMPR_RESU(RESU=_F(MAILLAGE=MA_D2,),);

TEST_RESU(CARTE=(_F(REFERENCE='ANALYTIQUE',
                    NOM_CMP='X1',
                    PRECISION=9.9999999999999995E-07,
                    VALE_CALC=1.000000000,
                    VALE_REFE=1.0,
                    MAILLE='M17',
                    CHAM_GD=N_R1,),
                 _F(REFERENCE='ANALYTIQUE',
                    NOM_CMP='X1',
                    PRECISION=9.9999999999999995E-07,
                    VALE_CALC=2.000000000,
                    VALE_REFE=2.0,
                    MAILLE='M44',
                    CHAM_GD=N_R2,),
                 _F(REFERENCE='ANALYTIQUE',
                    NOM_CMP='X1',
                    PRECISION=9.9999999999999995E-07,
                    VALE_CALC=1.000000000,
                    VALE_REFE=1.0,
                    MAILLE='M17',
                    CHAM_GD=N_D2,),
                 ),
          )

#################################################################
### MACR_ADAP_MAIL ##############################################
### LE MEME MAILLAGE INITIAL MAIS EN TRIA7/QUAD9 ################
#################################################################
#
MQ9_00 = CREA_MAILLAGE(MAILLAGE=MA_INIT,
                       MODI_MAILLE=(_F(OPTION='TRIA6_7',TOUT='OUI'),
                                    _F(OPTION='QUAD8_9',TOUT='OUI'),),)
#IMPR_RESU(FORMAT='MED',RESU=_F(MAILLAGE=MQ9_00,),);

#                                          LOGICIEL='/netdata/homard/ASTER_HOMARD/homard',
# RAFFINEMENT DU GROUPE DE GAUCHE
MACR_ADAP_MAIL(MAILLAGE_N=MQ9_00,
               MAILLAGE_NP1=CO('MQ9_01'),
               ADAPTATION='RAFFINEMENT_UNIFORME',
               GROUP_MA='FACE_1',);
#IMPR_RESU(FORMAT='MED',RESU=_F(MAILLAGE=MQ9_01,),);

# RAFFINEMENT AUTOUR D'UNE ZONE
MACR_ADAP_MAIL(MAILLAGE_N=MQ9_01,
               MAILLAGE_NP1=CO('MQ9_02'),
               ADAPTATION='RAFF_DERA_ZONE',
               ZONE=(_F(TYPE = 'DISQUE_PERCE',
                        X_CENTRE  = 0.75,
                        Y_CENTRE  = 0.75,
                        RAYON_INT = 0.10,
                        RAYON_EXT = 0.40,),),);
#IMPR_RESU(FORMAT='MED',RESU=_F(MAILLAGE=MQ9_02,),);

# RAFFINEMENT AUTOUR D'UNE ZONE, DERAFFINEMENT AUTOUR D'UNE AUTRE
MACR_ADAP_MAIL(MAILLAGE_N=MQ9_02,
               MAILLAGE_NP1=CO('MQ9_03'),
               ADAPTATION='RAFF_DERA_ZONE',
               ZONE=(_F(TYPE = 'RECTANGLE',
                        X_MINI = 0.49, X_MAXI = 1.01,
                        Y_MINI = 0.49, Y_MAXI = 1.01,
                        USAGE='DERAFFINEMENT',),
                      _F(TYPE = 'RECTANGLE',
                        X_MINI =  1.49, X_MAXI = 2.01,
                        Y_MINI = -0.01, Y_MAXI = 0.51,
                        USAGE='RAFFINEMENT',),),);
               #ADD_CHAM=_F(CHAM_GD=CO('N_Q9_03'),
                           #CHAM_CAT='NIVEAU',),);

#IMPR_RESU(FORMAT='MED',RESU=_F(MAILLAGE=MQ9_03,),);

# TESTS SUR LES CARACTERISTIQUES DE LA STRUCTURE
MATER1=DEFI_MATERIAU(ELAS=_F(E=180000.,NU = 0.30, ALPHA = 15.E-6, RHO = 7700., ) )
MATER2=DEFI_MATERIAU(ELAS=_F(E=220000.,NU = 0.33, ALPHA = 16.E-6, RHO = 8300., ) )
CHMAT=AFFE_MATERIAU(MAILLAGE=MQ9_03,
                    AFFE=(_F( GROUP_MA ='FACE_1',MATER = MATER1,),
                          _F( GROUP_MA ='FACE_2',MATER = MATER2,),),)
MODELE=AFFE_MODELE( MAILLAGE=MQ9_03,
                    AFFE=_F( TOUT = 'OUI',PHENOMENE = 'MECANIQUE', MODELISATION = 'COQUE_3D',   ) )
CARA_ELE=AFFE_CARA_ELEM( MODELE=MODELE,
                        COQUE=_F( GROUP_MA =('FACE_1','FACE_2'), EPAIS = 0.001, COEF_RIGI_DRZ = 0.001),)
MCG1=POST_ELEM(MODELE=MODELE,
              CHAM_MATER=CHMAT, CARA_ELEM=CARA_ELE,
              MASS_INER=_F(  GROUP_MA = ( 'FACE_1', ),),
              TITRE='MASSE, CENTRE DE GRAVITE ET INERTIE DE LA STRUCTURE'
              )
#
#IMPR_TABLE( TABLE=MCG1,
            #NOM_PARA = ( 'LIEU', 'MASSE', 'CDG_X', 'CDG_Y', 'IX_G', 'IY_G', 'IZ_G', 'IXY_G', 'IX_PRIN_G', 'IY_PRIN_G', 'IZ_PRIN_G'))
TEST_TABLE(TABLE=MCG1,
            NOM_PARA='IZ_PRIN_G',
            VALE_CALC=1.283333333,)
#
MCG2=POST_ELEM(MODELE=MODELE,
              CHAM_MATER=CHMAT, CARA_ELEM=CARA_ELE,
              MASS_INER=_F(  GROUP_MA = ( 'FACE_2', ),),
              TITRE='MASSE, CENTRE DE GRAVITE ET INERTIE DE LA STRUCTURE'
              )
#
#IMPR_TABLE( TABLE=MCG2,
            #NOM_PARA = ( 'LIEU', 'MASSE', 'CDG_X', 'CDG_Y', 'IX_G', 'IY_G', 'IZ_G', 'IXY_G', 'IX_PRIN_G', 'IY_PRIN_G', 'IZ_PRIN_G'))
TEST_TABLE(TABLE=MCG2,
            NOM_PARA='IZ_PRIN_G',
            VALE_CALC=1.383333333,)

FIN();
