# TITRE VALIDATION DE POST_DECOLLEMENT
# ======================================================================
# COPYRIGHT (C) 1991 - 2012  EDF R&D                  WWW.CODE-ASTER.ORG
# THIS PROGRAM IS FREE SOFTWARE; YOU CAN REDISTRIBUTE IT AND/OR MODIFY
# IT UNDER THE TERMS OF THE GNU GENERAL PUBLIC LICENSE AS PUBLISHED BY
# THE FREE SOFTWARE FOUNDATION; EITHER VERSION 2 OF THE LICENSE, OR
# (AT YOUR OPTION) ANY LATER VERSION.
#
# THIS PROGRAM IS DISTRIBUTED IN THE HOPE THAT IT WILL BE USEFUL, BUT
# WITHOUT ANY WARRANTY; WITHOUT EVEN THE IMPLIED WARRANTY OF
# MERCHANTABILITY OR FITNESS FOR A PARTICULAR PURPOSE. SEE THE GNU
# GENERAL PUBLIC LICENSE FOR MORE DETAILS.
#
# YOU SHOULD HAVE RECEIVED A COPY OF THE GNU GENERAL PUBLIC LICENSE
# ALONG WITH THIS PROGRAM; IF NOT, WRITE TO EDF R&D CODE_ASTER,
#    1 AVENUE DU GENERAL DE GAULLE, 92141 CLAMART CEDEX, FRANCE.
# ======================================================================

DEBUT(CODE=_F(NIV_PUB_WEB='INTERNET'),IGNORE_ALARM='MODELISA4_9', DEBUG=_F(SDVERI='NON'))

#'MODELISA4_9'='PRESENCE DE MAILLES APPLATIES'
# Les mailles concernees sont des seg2 entre deux noeuds coincidents
# On leur affecte des DIS_TR
# Cela permet de relier entre eux differents elements du maillage brochette
# On ignore donc cette alarme

METHODE='EULER'

MAIL0=LIRE_MAILLAGE(FORMAT='MED', );

MAILLAGE = CREA_MAILLAGE(MAILLAGE=MAIL0,
                  CREA_POI1 =_F(NOM_GROUP_MA = 'PRADIER',
                                GROUP_NO = 'SRADIER'),
                     );

STICKMOD=AFFE_MODELE(  MAILLAGE=MAILLAGE,AFFE=(
                      _F(  GROUP_MA = 'POU_D_T',PHENOMENE = 'MECANIQUE',
                             MODELISATION = 'POU_D_T'),
                           _F(  GROUP_MA = 'MASSES',  PHENOMENE = 'MECANIQUE',
                             MODELISATION = 'DIS_TR'),
                           _F(  GROUP_MA = 'LIAI_NOE',PHENOMENE = 'MECANIQUE',
                             MODELISATION = 'DIS_TR'),
                           _F(  GROUP_MA = 'VRADIER',PHENOMENE = 'MECANIQUE',
                             MODELISATION = '3D'),
                           _F(  GROUP_MA = 'PRADIER',PHENOMENE = 'MECANIQUE',
                             MODELISATION = 'DIS_TR')
                           )
                        );

# ----------------------------------------------------------------------
#  DEFINITION DES MATERIAUX

MAT_1=DEFI_MATERIAU(  ELAS=_F(
                         E = 4.000000000E+10,NU = 1.494252874E-01,
                         AMOR_ALPHA = 4.5E-4, AMOR_BETA = 7.,
                         RHO = 0.000000000E+00,ALPHA = 0.000000000E+00) );

MAT_2=DEFI_MATERIAU(  ELAS=_F(
                         E = 4.000000000E+10,NU = 1.494252874E-01,
                         AMOR_ALPHA = 4.5E-4, AMOR_BETA = 7.,
                         RHO = 2.500000000E+03,ALPHA = 0.000000000E+00) );

MAT_3=DEFI_MATERIAU(  ELAS=_F(
                         E = 4.000000000E+10,NU = 1.494252874E-01,
                         AMOR_ALPHA = 4.5E-4, AMOR_BETA = 7.,
                         RHO = 2.500000000E-01,ALPHA = 0.000000000E+00) );

# CREATION DU MATERIAU CONTACT

CONTACT=DEFI_MATERIAU(
                      DIS_CONTACT = _F( ),
                      );

CHAMPMAT=AFFE_MATERIAU(   MAILLAGE=MAILLAGE,AFFE=(
                     _F(  GROUP_MA = 'MAT_1',    MATER = MAT_1),
                          _F(  GROUP_MA = 'MAT_2',    MATER = MAT_2),
                          _F(  GROUP_MA = 'VRADIER',   MATER = MAT_2),
                          _F(  GROUP_MA = 'SRADIER',   MATER = MAT_3),
                          _F(  GROUP_MA = 'PRADIER',   MATER = CONTACT),
                          )
                           );

#
# ----------------------------------------------------------------------
# AFFECTATION DES CARACTERISTIQUES ELEMENTAIRES

CARA_ELE=AFFE_CARA_ELEM( MODELE=STICKMOD,
            #COQUE=_F( GROUP_MA = 'SRADIER', EPAIS = 0.001),
            POUTRE=(

          _F(  GROUP_MA = 'SEC_2',
             SECTION = 'GENERALE',
              CARA = ('A', 'IZ', 'IY', 'AY', 'AZ', 'JX',
                     'EZ', 'EY', 'RY', 'RZ', 'RT', ),
              VALE = ( 8.700000000E+01, 2.756900000E+04, 2.756900000E+04,
                      2.000000000E+00, 2.000000000E+00, 1.000000000E+07,
                      0.000000000E+00, 0.000000000E+00, 1.000000000E+00,
                      1.000000000E+00, 1.000000000E+00, )),
          _F(  GROUP_MA = 'SEC_3',
             SECTION = 'GENERALE',
              CARA = ('A', 'IZ', 'IY', 'AY', 'AZ', 'JX',
                     'EZ', 'EY', 'RY', 'RZ', 'RT', ),
              VALE = ( 1.696000000E+02, 4.294200000E+04, 4.294200000E+04,
                      2.000000000E+00, 2.000000000E+00, 1.000000000E+07,
                      0.000000000E+00, 0.000000000E+00, 1.000000000E+00,
                      1.000000000E+00, 1.000000000E+00, )),
          _F(  GROUP_MA = 'SEC_4',
             SECTION = 'GENERALE',
              CARA = ('A', 'IZ', 'IY', 'AY', 'AZ', 'JX',
                     'EZ', 'EY', 'RY', 'RZ', 'RT', ),
              VALE = ( 9.400000000E+01, 1.250000000E+04, 1.250000000E+04,
                      7.705000000E+01, 7.705000000E+01, 1.000000000E+07,
                      0.000000000E+00, 0.000000000E+00, 1.000000000E+00,
                      1.000000000E+00, 1.000000000E+00, )),
          _F(  GROUP_MA = 'SEC_5',
             SECTION = 'GENERALE',
              CARA = ('A', 'IZ', 'IY', 'AY', 'AZ', 'JX',
                     'EZ', 'EY', 'RY', 'RZ', 'RT', ),
              VALE = ( 4.852000000E+01, 6.522400000E+03, 6.142000000E+03,
                      5.720000000E+00, 3.540000000E+00, 1.000000000E+06,
                      0.000000000E+00, 0.000000000E+00, 1.000000000E+00,
                      1.000000000E+00, 1.000000000E+00, )),
          _F(  GROUP_MA = 'SEC_6',
             SECTION = 'GENERALE',
              CARA = ('A', 'IZ', 'IY', 'AY', 'AZ', 'JX',
                     'EZ', 'EY', 'RY', 'RZ', 'RT', ),
              VALE = ( 4.852000000E+01, 6.522400000E+03, 6.142000000E+03,
                      6.800000000E+00, 3.950000000E+00, 1.000000000E+06,
                      0.000000000E+00, 0.000000000E+00, 1.000000000E+00,
                      1.000000000E+00, 1.000000000E+00, )),
          _F(  GROUP_MA = 'SEC_7',
             SECTION = 'GENERALE',
              CARA = ('A', 'IZ', 'IY', 'AY', 'AZ', 'JX',
                     'EZ', 'EY', 'RY', 'RZ', 'RT', ),
              VALE = ( 2.328000000E+02, 1.095800000E+04, 2.128000000E+04,
                      4.950000000E+00, 1.870000000E+00, 1.000000000E+07,
                      0.000000000E+00, 0.000000000E+00, 1.000000000E+00,
                      1.000000000E+00, 1.000000000E+00, )),
          _F(  GROUP_MA = 'SEC_8',
             SECTION = 'GENERALE',
              CARA = ('A', 'IZ', 'IY', 'AY', 'AZ', 'JX',
                     'EZ', 'EY', 'RY', 'RZ', 'RT', ),
              VALE = ( 2.277000000E+02, 2.300000000E+04, 2.107900000E+04,
                      4.550000000E+00, 3.340000000E+00, 1.000000000E+07,
                      0.000000000E+00, 0.000000000E+00, 1.000000000E+00,
                      1.000000000E+00, 1.000000000E+00, )),
          _F(  GROUP_MA = 'SEC_9',
             SECTION = 'GENERALE',
              CARA = ('A', 'IZ', 'IY', 'AY', 'AZ', 'JX',
                     'EZ', 'EY', 'RY', 'RZ', 'RT', ),
              VALE = ( 1.490000000E+01, 1.900000000E+02, 1.500000000E+02,
                      1.860000000E+00, 1.770000000E+00, 1.000000000E+05,
                      0.000000000E+00, 0.000000000E+00, 1.000000000E+00,
                      1.000000000E+00, 1.000000000E+00, )),
          _F(  GROUP_MA = 'SEC_10',
             SECTION = 'GENERALE',
              CARA = ('A', 'IZ', 'IY', 'AY', 'AZ', 'JX',
                     'EZ', 'EY', 'RY', 'RZ', 'RT', ),
              VALE = ( 1.430000000E+01, 1.200000000E+02, 1.170000000E+02,
                      3.570000000E+00, 2.200000000E+00, 1.000000000E+05,
                      0.000000000E+00, 0.000000000E+00, 1.000000000E+00,
                      1.000000000E+00, 1.000000000E+00, )),
          _F(  GROUP_MA = 'SEC_11',
             SECTION = 'GENERALE',
              CARA = ('A', 'IZ', 'IY', 'AY', 'AZ', 'JX',
                     'EZ', 'EY', 'RY', 'RZ', 'RT', ),
              VALE = ( 5.348000000E+01, 5.486000000E+02, 5.486000000E+02,
                      7.640000000E+01, 7.640000000E+01, 1.000000000E+05,
                      0.000000000E+00, 0.000000000E+00, 1.000000000E+00,
                      1.000000000E+00, 1.000000000E+00, )),
          _F(  GROUP_MA = 'SEC_12',
             SECTION = 'GENERALE',
              CARA = ('A', 'IZ', 'IY', 'AY', 'AZ', 'JX',
                     'EZ', 'EY', 'RY', 'RZ', 'RT', ),
              VALE = ( 5.348000000E+01, 5.486000000E+02, 4.253000000E+02,
                      1.720000000E+00, 1.060000000E+00, 1.000000000E+05,
                      0.000000000E+00, 0.000000000E+00, 1.000000000E+00,
                      1.000000000E+00, 1.000000000E+00, )),
          _F(  GROUP_MA = 'SEC_13',
             SECTION = 'GENERALE',
              CARA = ('A', 'IZ', 'IY', 'AY', 'AZ', 'JX',
                     'EZ', 'EY', 'RY', 'RZ', 'RT', ),
              VALE = ( 4.521000000E+01, 3.261000000E+02, 3.261000000E+02,
                      1.370000000E+00, 1.370000000E+00, 1.000000000E+05,
                      0.000000000E+00, 0.000000000E+00, 1.000000000E+00,
                      1.000000000E+00, 1.000000000E+00, )),
          _F(  GROUP_MA = 'SEC_14',
             SECTION = 'GENERALE',
              CARA = ('A', 'IZ', 'IY', 'AY', 'AZ', 'JX',
                     'EZ', 'EY', 'RY', 'RZ', 'RT', ),
              VALE = ( 4.000000000E+01, 5.934000000E+02, 1.000000000E+00,
                      2.080000000E+00, 1.000000000E+03, 1.000000000E+05,
                      0.000000000E+00, 0.000000000E+00, 1.000000000E+00,
                      1.000000000E+00, 1.000000000E+00, ))),
        DISCRET=(
         # ON CARACTERISE LES ELEMENTS PAR DES VALEURS NULLES POUR EVITER l'ALARME
          _F(MAILLE=('MAS2','MAS3','MAS4','MAS5','MAS6','MAS7','MAS8','MAS9','MAS10','MAS11',
                     'MAS12','MAS13','MAS14','MAS15','MAS16','MAS17','MAS18','MAS19','MAS20','MAS21',
                     'MAS22','MAS23','MAS24','MAS25','MAS26','MAS27',),
             CARA='K_TR_D_N', VALE=(0.0,0.0,0.0,0.0,0.0,0.0,),),
          _F(MAILLE=('MAS2','MAS3','MAS4','MAS5','MAS6','MAS7','MAS8','MAS9','MAS10','MAS11',
                     'MAS12','MAS13','MAS14','MAS15','MAS16','MAS17','MAS18','MAS19','MAS20','MAS21',
                     'MAS22','MAS23','MAS24','MAS25','MAS26','MAS27',),
             CARA='A_TR_D_N', VALE=(0.0,0.0,0.0,0.0,0.0,0.0,),),
            #MASSES ET INERTIES LOCALISEES
          _F(  MAILLE = 'MAS2',     CARA = 'M_TR_D_N',
              VALE = ( 9.768000000E+06, 1.484000000E+09, 1.484000000E+09,
                      0.000000000E+00, 0.000000000E+00, 0.000000000E+00,
                      0.000000000E+00, 0.000000000E+00, 0.000000000E+00,
                      0.000000000E+00, )),
          _F(  MAILLE = 'MAS3',     CARA = 'M_TR_D_N',
              VALE = ( 2.827000000E+06, 9.359000000E+08, 9.359000000E+08,
                      0.000000000E+00, 0.000000000E+00, 0.000000000E+00,
                      0.000000000E+00, 0.000000000E+00, 0.000000000E+00,
                      0.000000000E+00, )),
          _F(  MAILLE = 'MAS4',     CARA = 'M_TR_D_N',
              VALE = ( 2.827000000E+06, 9.359000000E+08, 9.359000000E+08,
                      0.000000000E+00, 0.000000000E+00, 0.000000000E+00,
                      0.000000000E+00, 0.000000000E+00, 0.000000000E+00,
                      0.000000000E+00, )),
          _F(  MAILLE = 'MAS5',     CARA = 'M_TR_D_N',
              VALE = ( 1.921000000E+06, 6.176000000E+08, 6.176000000E+08,
                      0.000000000E+00, 0.000000000E+00, 0.000000000E+00,
                      0.000000000E+00, 0.000000000E+00, 0.000000000E+00,
                      0.000000000E+00, )),
          _F(  MAILLE = 'MAS6',     CARA = 'M_TR_D_N',
              VALE = ( 2.175000000E+06, 7.074000000E+08, 7.074000000E+08,
                      0.000000000E+00, 0.000000000E+00, 0.000000000E+00,
                      0.000000000E+00, 0.000000000E+00, 0.000000000E+00,
                      0.000000000E+00, )),
          _F(  MAILLE = 'MAS7',     CARA = 'M_TR_D_N',
              VALE = ( 2.729000000E+06, 9.008000000E+08, 9.008000000E+08,
                      0.000000000E+00, 0.000000000E+00, 0.000000000E+00,
                      0.000000000E+00, 0.000000000E+00, 0.000000000E+00,
                      0.000000000E+00, )),
          _F(  MAILLE = 'MAS8',     CARA = 'M_TR_D_N',
              VALE = ( 4.020000000E+06, 9.107000000E+08, 9.107000000E+08,
                      0.000000000E+00, 0.000000000E+00, 0.000000000E+00,
                      0.000000000E+00, 0.000000000E+00, 0.000000000E+00,
                      0.000000000E+00, )),
          _F(  MAILLE = 'MAS9',     CARA = 'M_TR_D_N',
              VALE = ( 3.554000000E+06, 8.840000000E+08, 8.840000000E+08,
                      1.768000000E+09, 0.000000000E+00, 0.000000000E+00,
                      0.000000000E+00, 0.000000000E+00, 0.000000000E+00,
                      0.000000000E+00, )),
          _F(  MAILLE = 'MAS10',    CARA = 'M_TR_D_N',
              VALE = ( 1.000000000E+00, 1.000000000E+00, 1.000000000E+00,
                      2.000000000E+00, 0.000000000E+00, 0.000000000E+00,
                      0.000000000E+00, 0.000000000E+00, 0.000000000E+00,
                      0.000000000E+00, )),
          _F(  MAILLE = 'MAS11',    CARA = 'M_TR_D_N',
              VALE = ( 2.098000000E+06, 5.200000000E+08, 5.200000000E+08,
                      1.040000000E+09, 0.000000000E+00, 0.000000000E+00,
                      0.000000000E+00, 0.000000000E+00, 0.000000000E+00,
                      0.000000000E+00, )),
          _F(  MAILLE = 'MAS12',    CARA = 'M_TR_D_N',
              VALE = ( 5.246000000E+06, 1.393000000E+09, 1.393000000E+09,
                      2.786000000E+09, 0.000000000E+00, 0.000000000E+00,
                      0.000000000E+00, 0.000000000E+00, 0.000000000E+00,
                      0.000000000E+00, )),
          _F(  MAILLE = 'MAS13',    CARA = 'M_TR_D_N',
              VALE = ( 5.858000000E+06, 1.525000000E+09, 1.525000000E+09,
                      3.050000000E+09, 0.000000000E+00, 0.000000000E+00,
                      0.000000000E+00, 0.000000000E+00, 0.000000000E+00,
                      0.000000000E+00, )),
          _F(  MAILLE = 'MAS14',    CARA = 'M_TR_D_N',
              VALE = ( 6.810000000E+06, 1.740000000E+09, 1.740000000E+09,
                      3.480000000E+09, 0.000000000E+00, 0.000000000E+00,
                      0.000000000E+00, 0.000000000E+00, 0.000000000E+00,
                      0.000000000E+00, )),
          _F(  MAILLE = 'MAS15',    CARA = 'M_TR_D_N',
              VALE = ( 1.000000000E+07, 2.020000000E+09, 2.020000000E+09,
                      4.040000000E+09, 0.000000000E+00, 0.000000000E+00,
                      0.000000000E+00, 0.000000000E+00, 0.000000000E+00,
                      0.000000000E+00, )),
          _F(  MAILLE = 'MAS16',    CARA = 'M_TR_D_N',
              VALE = ( 3.000000000E+05, 3.120000000E+07, 2.690000000E+07,
                      5.810000000E+07, 0.000000000E+00, 0.000000000E+00,
                      0.000000000E+00, 0.000000000E+00, 0.000000000E+00,
                      0.000000000E+00, )),
          _F(  MAILLE = 'MAS17',    CARA = 'M_TR_D_N',
              VALE = ( 2.750000000E+05, 5.700000000E+06, 3.500000000E+06,
                      9.200000000E+06, 0.000000000E+00, 0.000000000E+00,
                      0.000000000E+00, 0.000000000E+00, 0.000000000E+00,
                      0.000000000E+00, )),
          _F(  MAILLE = 'MAS18',    CARA = 'M_TR_D_N',
              VALE = ( 2.960000000E+06, 4.340000000E+08, 4.260000000E+08,
                      8.600000000E+08, 0.000000000E+00, 0.000000000E+00,
                      0.000000000E+00, 0.000000000E+00, 0.000000000E+00,
                      0.000000000E+00, )),
          _F(  MAILLE = 'MAS19',    CARA = 'M_TR_D_N',
              VALE = ( 1.130000000E+06, 3.620000000E+07, 3.190000000E+07,
                      6.810000000E+07, 0.000000000E+00, 0.000000000E+00,
                      0.000000000E+00, 0.000000000E+00, 0.000000000E+00,
                      0.000000000E+00, )),
          _F(  MAILLE = 'MAS20',    CARA = 'M_TR_D_N',
              VALE = ( 4.230000000E+06, 5.360000000E+08, 5.560000000E+08,
                      1.091000000E+09, 0.000000000E+00, 0.000000000E+00,
                      0.000000000E+00, 0.000000000E+00, 0.000000000E+00,
                      0.000000000E+00, )),
          _F(  MAILLE = 'MAS21',    CARA = 'M_TR_D_N',
              VALE = ( 3.260000000E+06, 5.390000000E+07, 6.750000000E+07,
                      1.214000000E+08, 0.000000000E+00, 0.000000000E+00,
                      0.000000000E+00, 0.000000000E+00, 0.000000000E+00,
                      0.000000000E+00, )),
          _F(  MAILLE = 'MAS22',    CARA = 'M_TR_D_N',
              VALE = ( 4.930000000E+06, 5.500000000E+08, 5.280000000E+08,
                      1.078000000E+09, 0.000000000E+00, 0.000000000E+00,
                      0.000000000E+00, 0.000000000E+00, 0.000000000E+00,
                      0.000000000E+00, )),
          _F(  MAILLE = 'MAS23',    CARA = 'M_TR_D_N',
              VALE = ( 1.890000000E+06, 1.700000000E+08, 1.000000000E+00,
                      1.700000000E+08, 0.000000000E+00, 0.000000000E+00,
                      0.000000000E+00, 0.000000000E+00, 0.000000000E+00,
                      0.000000000E+00, )),
          _F(  MAILLE = 'MAS24',    CARA = 'M_TR_D_N',
              VALE = ( 6.980000000E+06, 9.130000000E+08, 6.930000000E+08,
                      1.606000000E+09, 0.000000000E+00, 0.000000000E+00,
                      0.000000000E+00, 0.000000000E+00, 0.000000000E+00,
                      0.000000000E+00, )),
          _F(  MAILLE = 'MAS25',    CARA = 'M_TR_D_N',
              VALE = ( 3.800000000E+05, 1.000000000E+00, 1.000000000E+00,
                      1.000000000E+00, 0.000000000E+00, 0.000000000E+00,
                      0.000000000E+00, 0.000000000E+00, 0.000000000E+00,
                      0.000000000E+00, )),
          _F(  MAILLE = 'MAS26',    CARA = 'M_TR_D_N',
              VALE = ( 2.700000000E+05, 1.000000000E+00, 1.000000000E+00,
                      1.000000000E+00, 0.000000000E+00, 0.000000000E+00,
                      0.000000000E+00, 0.000000000E+00, 0.000000000E+00,
                      0.000000000E+00, )),
          _F(  MAILLE = 'MAS27',    CARA = 'M_TR_D_N',
              VALE = ( 1.000000000E+05, 1.000000000E+00, 1.000000000E+00,
                      1.000000000E+00, 0.000000000E+00, 0.000000000E+00,
                      0.000000000E+00, 0.000000000E+00, 0.000000000E+00,
                      0.000000000E+00, )),
          # FIN DES CARACTERISTIQUES DES MASSES

            # LIAISONS SIMPLES NOEUD-NOEUD
            # ON CARACTERISE LES ELEMENTS PAR DES VALEURS NULLES POUR EVITER l'ALARME
          _F(GROUP_MA = ('RLN_1','RLN_2','RLN_3','RLN_4','RLN_5',),
             CARA = 'A_TR_D_L', REPERE = 'GLOBAL',
             VALE = ( 0.0, 0.0, 0.0, 0.0, 0.0 ,0.0,),),

          _F(  GROUP_MA = 'RLN_1',    CARA = 'K_TR_D_L',
            VALE = ( 1.000000000E+00, 1.320000000E+10, 7.080000000E+08,
                   1.424000000E+10, 1.000000000E+00, 1.000000000E+13,),
                  REPERE = 'GLOBAL'),
          _F(  GROUP_MA = 'RLN_2',    CARA = 'K_TR_D_L',
            VALE = ( 7.800000000E+10, 1.040000000E+11, 6.160000000E+09,
                   1.632000000E+11, 5.560000000E+10, 1.000000000E+14,),
                  REPERE = 'GLOBAL'),
          _F(  GROUP_MA = 'RLN_3',    CARA = 'K_TR_D_L',
            VALE = ( 1.692000000E+11, 1.840000000E+11, 1.872000000E+10,
                   7.600000000E+11, 1.800000000E+11, 1.000000000E+14,),
                  REPERE = 'GLOBAL'),
          _F(  GROUP_MA = 'RLN_4',    CARA = 'K_TR_D_L',
            VALE = ( 0.000000000E+00, 2.000000000E+11, 5.872000000E+10,
                   4.039000000E+12, 0.000000000E+00, 1.000000000E+14,),
                  REPERE = 'GLOBAL'),
          _F(  GROUP_MA = 'RLN_5',    CARA = 'K_TR_D_L',
            VALE = ( 1.900000000E+11, 1.900000000E+11, 2.000000000E+09,
                   5.000000000E+11, 5.000000000E+11, 1.000000000E+14,),
                  REPERE = 'GLOBAL')),

         ORIENTATION=_F(  GROUP_MA = 'PRADIER',
                          CARA = 'VECT_X_Y',
                          VALE = ( 0., 0., -1., 0., 1., 0., ),
                                                              ),

  RIGI_PARASOL=_F(
     GROUP_MA = 'SRADIER', GROUP_MA_POI1 = 'PRADIER',
     COEF_GROUP = 1., GROUP_NO_CENTRE = 'P1',
      CARA = ( 'K_TR_D_N', 'A_TR_D_N'),
      VALE = (  6.295000000E+11, 6.295000000E+11, 6.864000000E+11, 3.188000000E+14, 3.188000000E+14, 3.2E14,
               0.0, 0.0, 0.0, 0.0, 0.0, 0.0,),),
)

#
# LA STRUCTURE EST RIGIDIFIEE A L INTERFACE
#------------------------------------------

COND_LIM=AFFE_CHAR_MECA(  MODELE=STICKMOD,LIAISON_SOLIDE=(
                   _F(  GROUP_NO = ('HRADIER',)),
                   _F(  GROUP_NO = ('SRADIER',))),LIAISON_UNIF=(
                     _F( GROUP_MA = 'RLN_4',  DDL = 'DX'),
                     _F( GROUP_MA = 'RLN_4',  DDL = 'DRY'))
                                             );


# --- EXCITATION -------------------------------------------------------

LBNSNL1=DEFI_FONCTION(  NOM_RESU='ACCE',  NOM_PARA='INST',
                             PROL_GAUCHE='EXCLU',  PROL_DROITE='EXCLU',
                             VALE=(
      0.00000E+00,   9.98700E-02,   1.00000E-02,   6.60700E-02,
      2.00000E-02,  -5.65000E-03,   3.00000E-02,  -9.46800E-02,
      4.00000E-02,  -1.72640E-01,   5.00000E-02,  -2.31410E-01,
      6.00000E-02,  -2.59730E-01,   7.00000E-02,  -2.45200E-01,
      8.00000E-02,  -2.28080E-01,   9.00000E-02,  -2.07100E-01,
      1.00000E-01,  -1.92290E-01,   1.10000E-01,  -1.84380E-01,
      1.20000E-01,  -1.73390E-01,   1.30000E-01,  -1.47300E-01,
      1.40000E-01,  -1.00260E-01,   1.50000E-01,  -5.68800E-02,
      1.60000E-01,  -2.75300E-02,   1.70000E-01,  -1.66600E-02,
      1.80000E-01,  -2.89500E-02,   1.90000E-01,  -2.56100E-02,
      2.00000E-01,  -2.44000E-03,   2.10000E-01,   5.10100E-02,
      2.20000E-01,   1.18910E-01,   2.30000E-01,   1.72110E-01,
      2.40000E-01,   2.08440E-01,   2.50000E-01,   1.87440E-01,
      2.60000E-01,   1.52490E-01,   2.70000E-01,   1.13890E-01,
      2.80000E-01,   8.58600E-02,   2.90000E-01,   7.94000E-02,
      3.00000E-01,   7.14700E-02,   3.10000E-01,   6.51100E-02,
      3.20000E-01,   3.62200E-02,   3.30000E-01,  -1.56000E-03,
      3.40000E-01,  -5.13700E-02,   3.50000E-01,  -1.04740E-01,
      3.60000E-01,  -1.58760E-01,   3.70000E-01,  -2.09020E-01,
      3.80000E-01,  -2.40350E-01,   3.90000E-01,  -2.76940E-01,
      4.00000E-01,  -2.99180E-01,   4.10000E-01,  -3.05670E-01,
      4.20000E-01,  -3.10390E-01,   4.30000E-01,  -3.07170E-01,
      4.40000E-01,  -2.98390E-01,   4.50000E-01,  -2.81370E-01,
      4.60000E-01,  -2.59770E-01,   4.70000E-01,  -2.09620E-01,
      4.80000E-01,  -1.65930E-01,   4.90000E-01,  -1.44410E-01,
      5.00000E-01,  -1.46320E-01,   5.10000E-01,  -1.56870E-01,
      5.20000E-01,  -1.71090E-01,   5.30000E-01,  -1.83740E-01,
      5.40000E-01,  -1.66330E-01,   5.50000E-01,  -1.29420E-01,
      5.60000E-01,  -6.66100E-02,   5.70000E-01,   5.06000E-03,
      5.80000E-01,   7.49700E-02,   5.90000E-01,   1.23870E-01,
      6.00000E-01,   1.37740E-01,   6.10000E-01,   1.14020E-01,
      6.20000E-01,   4.92900E-02,   6.30000E-01,  -3.19000E-02,
      6.40000E-01,  -9.68200E-02,   6.50000E-01,  -8.91800E-02,
      6.60000E-01,  -2.69200E-02,   6.70000E-01,   9.02200E-02,
      6.80000E-01,   1.99490E-01,   6.90000E-01,   2.62860E-01,
      7.00000E-01,   2.89480E-01,   7.10000E-01,   2.86950E-01,
      7.20000E-01,   2.67160E-01,   7.30000E-01,   2.20370E-01,
      7.40000E-01,   1.56120E-01,   7.50000E-01,   7.67600E-02,
      7.60000E-01,  -7.70000E-04,   7.70000E-01,  -9.63600E-02,
      7.80000E-01,  -1.70280E-01,   7.90000E-01,  -2.71330E-01,
      8.00000E-01,  -3.40390E-01,   8.10000E-01,  -3.99810E-01,
      8.20000E-01,  -4.62290E-01,   8.30000E-01,  -5.27250E-01,
      8.40000E-01,  -5.92090E-01,   8.50000E-01,  -5.86920E-01,
      8.60000E-01,  -5.19810E-01,   8.70000E-01,  -3.37320E-01,
      8.80000E-01,  -1.45500E-01,   8.90000E-01,   2.31200E-02,
      9.00000E-01,   1.20240E-01,   9.10000E-01,   1.86280E-01,
      9.20000E-01,   2.24340E-01,   9.30000E-01,   2.51950E-01,
      9.40000E-01,   2.93650E-01,   9.50000E-01,   3.09820E-01,
      9.60000E-01,   3.21080E-01,   9.70000E-01,   2.75540E-01,
      9.80000E-01,   2.47960E-01,   9.90000E-01,   2.40520E-01,
      1.00000E+00,   2.64040E-01,   1.01000E+00,   3.06480E-01,
      1.02000E+00,   3.44900E-01,   1.03000E+00,   3.43420E-01,
      1.04000E+00,   3.10520E-01,   1.05000E+00,   2.23830E-01,
      1.06000E+00,   1.13730E-01,   1.07000E+00,   3.32100E-02,
      1.08000E+00,  -4.73400E-02,   1.09000E+00,  -4.60500E-02,
      1.10000E+00,  -3.91600E-02,   1.11000E+00,   1.09200E-02,
      1.12000E+00,   8.12700E-02,   1.13000E+00,   2.08910E-01,
      1.14000E+00,   3.68120E-01,   1.15000E+00,   5.53860E-01,
      1.16000E+00,   7.47500E-01,   1.17000E+00,   8.85890E-01,
      1.18000E+00,   9.11660E-01,   1.19000E+00,   8.68050E-01,
      1.20000E+00,   7.39040E-01,   1.21000E+00,   4.85180E-01,
      1.22000E+00,   1.65590E-01,   1.23000E+00,  -1.15520E-01,
      1.24000E+00,  -4.15350E-01,   1.25000E+00,  -6.13330E-01,
      1.26000E+00,  -5.61510E-01,   1.27000E+00,   1.87000E-03,
      1.28000E+00,   6.02010E-01,   1.29000E+00,   8.55620E-01,
      1.30000E+00,   8.45060E-01,   1.31000E+00,   6.07800E-01,
      1.32000E+00,   3.77430E-01,   1.33000E+00,   3.21100E-01,
      1.34000E+00,   3.79330E-01,   1.35000E+00,   3.61540E-01,
      1.36000E+00,   3.20330E-01,   1.37000E+00,   3.21060E-01,
      1.38000E+00,   3.21210E-01,   1.39000E+00,   2.32180E-01,
      1.40000E+00,   1.42600E-01,   1.41000E+00,   1.09910E-01,
      1.42000E+00,   7.22500E-02,   1.43000E+00,   1.03300E-02,
      1.44000E+00,  -5.08800E-02,   1.45000E+00,  -1.17170E-01,
      1.46000E+00,  -1.58580E-01,   1.47000E+00,  -1.53410E-01,
      1.48000E+00,  -1.35750E-01,   1.49000E+00,  -1.48980E-01,
      1.50000E+00,  -2.07630E-01,   1.51000E+00,  -2.51140E-01,
      1.52000E+00,  -3.35840E-01,   1.53000E+00,  -4.25080E-01,
      1.54000E+00,  -5.08880E-01,   1.55000E+00,  -5.56120E-01,
      1.56000E+00,  -5.37450E-01,   1.57000E+00,  -4.33020E-01,
      1.58000E+00,  -2.71490E-01,   1.59000E+00,  -9.64800E-02,
      1.60000E+00,   7.95700E-02,   1.61000E+00,   1.57730E-01,
      1.62000E+00,   1.17850E-01,   1.63000E+00,  -1.18930E-01,
      1.64000E+00,  -4.24040E-01,   1.65000E+00,  -6.74800E-01,
      1.66000E+00,  -7.93830E-01,   1.67000E+00,  -6.64540E-01,
      1.68000E+00,  -4.66720E-01,   1.69000E+00,  -2.59930E-01,
      1.70000E+00,  -1.06870E-01,   1.71000E+00,   3.76300E-02,
      1.72000E+00,   1.28890E-01,   1.73000E+00,   1.79760E-01,
      1.74000E+00,   2.13290E-01,   1.75000E+00,   2.59390E-01,
      1.76000E+00,   3.37830E-01,   1.77000E+00,   4.39550E-01,
      1.78000E+00,   5.68980E-01,   1.79000E+00,   6.47120E-01,
      1.80000E+00,   7.02640E-01,   1.81000E+00,   6.70780E-01,
      1.82000E+00,   6.33650E-01,   1.83000E+00,   5.96170E-01,
      1.84000E+00,   5.85880E-01,   1.85000E+00,   5.80260E-01,
      1.86000E+00,   5.96710E-01,   1.87000E+00,   6.27250E-01,
      1.88000E+00,   6.64330E-01,   1.89000E+00,   6.59600E-01,
      1.90000E+00,   5.96300E-01,   1.91000E+00,   4.60370E-01,
      1.92000E+00,   2.57620E-01,   1.93000E+00,   3.19300E-02,
      1.94000E+00,  -1.95660E-01,   1.95000E+00,  -3.94370E-01,
      1.96000E+00,  -5.53670E-01,   1.97000E+00,  -6.30330E-01,
      1.98000E+00,  -6.71720E-01,   1.99000E+00,  -6.84840E-01,
      2.00000E+00,  -7.18140E-01,   2.01000E+00,  -7.80370E-01,
      2.02000E+00,  -8.37710E-01,   2.03000E+00,  -8.47280E-01,
      2.04000E+00,  -8.16190E-01,   2.05000E+00,  -7.89830E-01,
      2.06000E+00,  -7.82760E-01,   2.07000E+00,  -7.96890E-01,
      2.08000E+00,  -8.45320E-01,   2.09000E+00,  -8.85650E-01,
      2.10000E+00,  -9.08180E-01,   2.11000E+00,  -8.75930E-01,
      2.12000E+00,  -7.86080E-01,   2.13000E+00,  -6.18570E-01,
      2.14000E+00,  -4.12300E-01,   2.15000E+00,  -2.02970E-01,
      2.16000E+00,  -1.63000E-02,   2.17000E+00,   1.16590E-01,
      2.18000E+00,   1.57000E-01,   2.19000E+00,   1.18400E-01,
      2.20000E+00,   3.72000E-02,   2.21000E+00,  -3.73100E-02,
      2.22000E+00,  -7.19000E-02,   2.23000E+00,  -4.46000E-02,
      2.24000E+00,   3.37500E-02,   2.25000E+00,   1.18120E-01,
      2.26000E+00,   2.26390E-01,   2.27000E+00,   3.16220E-01,
      2.28000E+00,   3.57150E-01,   2.29000E+00,   2.93650E-01,
      2.30000E+00,   2.15970E-01,   2.31000E+00,   1.87910E-01,
      2.32000E+00,   1.92800E-01,   2.33000E+00,   1.78800E-01,
      2.34000E+00,   1.39560E-01,   2.35000E+00,   5.61700E-02,
      2.36000E+00,  -3.16500E-02,   2.37000E+00,  -8.36500E-02,
      2.38000E+00,  -1.20930E-01,   2.39000E+00,  -1.87480E-01,
      2.40000E+00,  -2.79950E-01,   2.41000E+00,  -3.83030E-01,
      2.42000E+00,  -5.01300E-01,   2.43000E+00,  -6.11810E-01,
      2.44000E+00,  -6.67460E-01,   2.45000E+00,  -5.34950E-01,
      2.46000E+00,  -3.52970E-01,   2.47000E+00,  -1.15790E-01,
      2.48000E+00,   1.19710E-01,   2.49000E+00,   3.27900E-01,
      2.50000E+00,   4.95900E-01,   2.51000E+00,   5.47010E-01,
      2.52000E+00,   5.46130E-01,   2.53000E+00,   4.63060E-01,
      2.54000E+00,   3.78960E-01,   2.55000E+00,   3.12030E-01,
      2.56000E+00,   2.70460E-01,   2.57000E+00,   2.76280E-01,
      2.58000E+00,   3.37340E-01,   2.59000E+00,   4.06990E-01,
      2.60000E+00,   4.56380E-01,   2.61000E+00,   4.28060E-01,
      2.62000E+00,   3.01880E-01,   2.63000E+00,   1.37080E-01,
      2.64000E+00,  -2.98500E-02,   2.65000E+00,  -7.48000E-02,
      2.66000E+00,  -7.90000E-02,   2.67000E+00,  -1.04970E-01,
      2.68000E+00,  -1.18820E-01,   2.69000E+00,  -1.57310E-01,
      2.70000E+00,  -1.57430E-01,   2.71000E+00,  -1.19910E-01,
      2.72000E+00,  -6.52700E-02,   2.73000E+00,  -3.82700E-02,
      2.74000E+00,  -2.40800E-02,   2.75000E+00,   1.79500E-02,
      2.76000E+00,   7.28400E-02,   2.77000E+00,   1.99400E-02,
      2.78000E+00,  -1.26090E-01,   2.79000E+00,  -2.44470E-01,
      2.80000E+00,  -4.14110E-01,   2.81000E+00,  -5.36020E-01,
      2.82000E+00,  -4.55820E-01,   2.83000E+00,   7.43800E-02,
      2.84000E+00,   5.95590E-01,   2.85000E+00,   6.18530E-01,
      2.86000E+00,   4.38700E-01,   2.87000E+00,   1.40090E-01,
      2.88000E+00,  -8.59400E-02,   2.89000E+00,  -2.13360E-01,
      2.90000E+00,  -2.36450E-01,   2.91000E+00,  -2.75560E-01,
      2.92000E+00,  -3.31390E-01,   2.93000E+00,  -3.62390E-01,
      2.94000E+00,  -4.06320E-01,   2.95000E+00,  -5.21160E-01,
      2.96000E+00,  -6.53380E-01,   2.97000E+00,  -7.22870E-01,
      2.98000E+00,  -7.12320E-01,   2.99000E+00,  -6.09230E-01,
      3.00000E+00,  -4.85780E-01,   3.01000E+00,  -3.74880E-01,
      3.02000E+00,  -2.45710E-01,   3.03000E+00,  -1.69100E-02,
      3.04000E+00,   3.19500E-01,   3.05000E+00,   6.81410E-01,
      3.06000E+00,   9.67740E-01,   3.07000E+00,   9.89830E-01,
      3.08000E+00,   9.97500E-01,   3.09000E+00,   9.99980E-01,
      3.10000E+00,   1.00000E+00,   3.11000E+00,   8.94380E-01,
      3.12000E+00,   7.83880E-01,   3.13000E+00,   7.24580E-01,
      3.14000E+00,   7.19890E-01,   3.15000E+00,   7.43020E-01,
      3.16000E+00,   7.83650E-01,   3.17000E+00,   7.78320E-01,
      3.18000E+00,   7.21730E-01,   3.19000E+00,   6.48840E-01,
      3.20000E+00,   5.32690E-01,   3.21000E+00,   3.50190E-01,
      3.22000E+00,   1.50380E-01,   3.23000E+00,  -4.91400E-02,
      3.24000E+00,  -2.52680E-01,   3.25000E+00,  -4.19260E-01,
      3.26000E+00,  -5.26940E-01,   3.27000E+00,  -4.72860E-01,
      3.28000E+00,  -3.62630E-01,   3.29000E+00,  -1.75460E-01,
      3.30000E+00,  -4.64700E-02,   3.31000E+00,  -8.94800E-02,
      3.32000E+00,  -1.76110E-01,   3.33000E+00,  -2.45630E-01,
      3.34000E+00,  -2.65410E-01,   3.35000E+00,  -2.90730E-01,
      3.36000E+00,  -3.07330E-01,   3.37000E+00,  -3.00890E-01,
      3.38000E+00,  -2.86810E-01,   3.39000E+00,  -2.85650E-01,
      3.40000E+00,  -2.94230E-01,   3.41000E+00,  -3.59080E-01,
      3.42000E+00,  -5.00590E-01,   3.43000E+00,  -6.45140E-01,
      3.44000E+00,  -7.81870E-01,   3.45000E+00,  -7.09760E-01,
      3.46000E+00,  -4.92770E-01,   3.47000E+00,  -3.01900E-02,
      3.48000E+00,   4.54180E-01,   3.49000E+00,   7.34350E-01,
      3.50000E+00,   8.84020E-01,   3.51000E+00,   8.29340E-01,
      3.52000E+00,   7.53720E-01,   3.53000E+00,   6.65660E-01,
      3.54000E+00,   5.73710E-01,   3.55000E+00,   4.05020E-01,
      3.56000E+00,   1.86900E-01,   3.57000E+00,  -5.23300E-02,
      3.58000E+00,  -2.69520E-01,   3.59000E+00,  -4.38750E-01,
      3.60000E+00,  -5.53860E-01,   3.61000E+00,  -5.61010E-01,
      3.62000E+00,  -5.08950E-01,   3.63000E+00,  -3.28800E-01,
      3.64000E+00,  -1.63050E-01,   3.65000E+00,  -7.62400E-02,
      3.66000E+00,  -4.47700E-02,   3.67000E+00,  -1.19620E-01,
      3.68000E+00,  -1.56510E-01,   3.69000E+00,  -1.41890E-01,
      3.70000E+00,  -6.74900E-02,   3.71000E+00,   1.87300E-02,
      3.72000E+00,   6.73200E-02,   3.73000E+00,   8.69500E-02,
      3.74000E+00,   7.37500E-02,   3.75000E+00,   4.12100E-02,
      3.76000E+00,   3.91100E-02,   3.77000E+00,   4.62500E-02,
      3.78000E+00,   4.11900E-02,   3.79000E+00,   3.98200E-02,
      3.80000E+00,   1.06600E-02,   3.81000E+00,  -4.73000E-03,
      3.82000E+00,  -4.71700E-02,   3.83000E+00,  -1.00830E-01,
      3.84000E+00,  -1.66090E-01,   3.85000E+00,  -1.95090E-01,
      3.86000E+00,  -1.71180E-01,   3.87000E+00,  -9.23900E-02,
      3.88000E+00,   2.09100E-02,   3.89000E+00,   1.49430E-01,
      3.90000E+00,   2.26820E-01,   3.91000E+00,   2.00330E-01,
      3.92000E+00,   1.53580E-01,   3.93000E+00,   8.04800E-02,
      3.94000E+00,   6.98700E-02,   3.95000E+00,   1.22350E-01,
      3.96000E+00,   1.96830E-01,   3.97000E+00,   2.04560E-01,
      3.98000E+00,   1.68350E-01,   3.99000E+00,   9.98500E-02,
      4.00000E+00,  -2.06200E-02,   4.01000E+00,  -1.94470E-01,
      4.02000E+00,  -3.82600E-01,   4.03000E+00,  -6.17020E-01,
      4.04000E+00,  -8.64200E-01,   4.05000E+00,  -9.96680E-01,
      4.06000E+00,  -9.96700E-01,   4.07000E+00,  -9.87710E-01,
      4.08000E+00,  -7.70910E-01,   4.09000E+00,  -3.57530E-01,
      4.10000E+00,   2.77200E-02,   4.11000E+00,   1.44440E-01,
      4.12000E+00,   1.35420E-01,   4.13000E+00,   6.40000E-02,
      4.14000E+00,   1.95700E-02,   4.15000E+00,   2.29000E-02,
      4.16000E+00,   1.07250E-01,   4.17000E+00,   1.74610E-01,
      4.18000E+00,   2.27140E-01,   4.19000E+00,   2.66040E-01,
      4.20000E+00,   2.86110E-01,   4.21000E+00,   2.77010E-01,
      4.22000E+00,   2.68140E-01,   4.23000E+00,   2.69550E-01,
      4.24000E+00,   2.43860E-01,   4.25000E+00,   1.61620E-01,
      4.26000E+00,   2.65800E-02,   4.27000E+00,  -1.47950E-01,
      4.28000E+00,  -3.28830E-01,   4.29000E+00,  -4.68860E-01,
      4.30000E+00,  -5.72250E-01,   4.31000E+00,  -6.50510E-01,
      4.32000E+00,  -6.98180E-01,   4.33000E+00,  -7.30540E-01,
      4.34000E+00,  -7.74320E-01,   4.35000E+00,  -8.16090E-01,
      4.36000E+00,  -8.60210E-01,   4.37000E+00,  -8.39010E-01,
      4.38000E+00,  -7.82200E-01,   4.39000E+00,  -6.49050E-01,
      4.40000E+00,  -5.00880E-01,   4.41000E+00,  -3.96660E-01,
      4.42000E+00,  -3.48180E-01,   4.43000E+00,  -3.94990E-01,
      4.44000E+00,  -5.17960E-01,   4.45000E+00,  -6.96300E-01,
      4.46000E+00,  -8.45330E-01,   4.47000E+00,  -8.67280E-01,
      4.48000E+00,  -7.92690E-01,   4.49000E+00,  -6.38010E-01,
      4.50000E+00,  -4.44010E-01,   4.51000E+00,  -2.43790E-01,
      4.52000E+00,  -7.69500E-02,   4.53000E+00,   6.29700E-02,
      4.54000E+00,   1.49480E-01,   4.55000E+00,   2.08270E-01,
      4.56000E+00,   2.56710E-01,   4.57000E+00,   3.00890E-01,
      4.58000E+00,   3.54520E-01,   4.59000E+00,   4.03280E-01,
      4.60000E+00,   4.57750E-01,   4.61000E+00,   5.07650E-01,
      4.62000E+00,   5.72830E-01,   4.63000E+00,   6.57310E-01,
      4.64000E+00,   7.49390E-01,   4.65000E+00,   7.99790E-01,
      4.66000E+00,   8.42240E-01,   4.67000E+00,   8.29000E-01,
      4.68000E+00,   8.24560E-01,   4.69000E+00,   8.25420E-01,
      4.70000E+00,   8.31500E-01,   4.71000E+00,   7.89840E-01,
      4.72000E+00,   7.02050E-01,   4.73000E+00,   5.58130E-01,
      4.74000E+00,   3.58500E-01,   4.75000E+00,   1.25380E-01,
      4.76000E+00,  -1.22710E-01,   4.77000E+00,  -3.09620E-01,
      4.78000E+00,  -4.18950E-01,   4.79000E+00,  -3.09070E-01,
      4.80000E+00,  -1.01770E-01,   4.81000E+00,   1.75590E-01,
      4.82000E+00,   4.29710E-01,   4.83000E+00,   5.86950E-01,
      4.84000E+00,   6.55380E-01,   4.85000E+00,   5.86540E-01,
      4.86000E+00,   5.02180E-01,   4.87000E+00,   4.23470E-01,
      4.88000E+00,   3.86700E-01,   4.89000E+00,   3.56880E-01,
      4.90000E+00,   3.38670E-01,   4.91000E+00,   3.11470E-01,
      4.92000E+00,   2.80510E-01,   4.93000E+00,   2.38290E-01,
      4.94000E+00,   1.90890E-01,   4.95000E+00,   1.35820E-01,
      4.96000E+00,   6.80300E-02,   4.97000E+00,   1.93000E-03,
      4.98000E+00,  -5.48300E-02,   4.99000E+00,  -1.06270E-01,
      5.00000E+00,  -1.40890E-01,   5.01000E+00,  -1.49910E-01,
      5.02000E+00,  -1.34640E-01,   5.03000E+00,  -1.01880E-01,
      5.04000E+00,  -7.39100E-02,   5.05000E+00,  -7.13800E-02,
      5.06000E+00,  -1.21390E-01,   5.07000E+00,  -1.98270E-01,
      5.08000E+00,  -2.88670E-01,   5.09000E+00,  -3.04420E-01,
      5.10000E+00,  -2.30020E-01,   5.11000E+00,   2.17300E-02,
      5.12000E+00,   3.18690E-01,   5.13000E+00,   5.61880E-01,
      5.14000E+00,   6.87670E-01,   5.15000E+00,   6.15360E-01,
      5.16000E+00,   4.49620E-01,   5.17000E+00,   2.11250E-01,
      5.18000E+00,   5.14000E-03,   5.19000E+00,  -1.48020E-01,
      5.20000E+00,  -2.41540E-01,   5.21000E+00,  -2.95530E-01,
      5.22000E+00,  -3.20300E-01,   5.23000E+00,  -3.23380E-01,
      5.24000E+00,  -3.05120E-01,   5.25000E+00,  -2.55930E-01,
      5.26000E+00,  -1.78950E-01,   5.27000E+00,  -1.08560E-01,
      5.28000E+00,  -6.46300E-02,   5.29000E+00,  -8.49800E-02,
      5.30000E+00,  -1.83460E-01,   5.31000E+00,  -3.11860E-01,
      5.32000E+00,  -4.44740E-01,   5.33000E+00,  -4.78040E-01,
      5.34000E+00,  -4.28950E-01,   5.35000E+00,  -2.37600E-01,
      5.36000E+00,  -7.27000E-02,   5.37000E+00,  -6.22100E-02,
      5.38000E+00,  -1.27450E-01,   5.39000E+00,  -2.27690E-01,
      5.40000E+00,  -2.62950E-01,   5.41000E+00,  -2.30910E-01,
      5.42000E+00,  -1.40790E-01,   5.43000E+00,  -9.54200E-02,
      5.44000E+00,  -1.13680E-01,   5.45000E+00,  -1.68640E-01,
      5.46000E+00,  -2.73280E-01,   5.47000E+00,  -3.38380E-01,
      5.48000E+00,  -2.99060E-01,   5.49000E+00,  -3.66300E-02,
      5.50000E+00,   3.02250E-01,   5.51000E+00,   6.08620E-01,
      5.52000E+00,   7.82180E-01,   5.53000E+00,   7.10780E-01,
      5.54000E+00,   5.47790E-01,   5.55000E+00,   4.26490E-01,
      5.56000E+00,   3.81940E-01,   5.57000E+00,   3.96530E-01,
      5.58000E+00,   4.51570E-01,   5.59000E+00,   5.01580E-01,
      5.60000E+00,   5.15430E-01,   5.61000E+00,   4.60740E-01,
      5.62000E+00,   3.98870E-01,   5.63000E+00,   3.32350E-01,
      5.64000E+00,   2.75420E-01,   5.65000E+00,   1.86210E-01,
      5.66000E+00,   8.04900E-02,   5.67000E+00,  -3.15200E-02,
      5.68000E+00,  -1.46180E-01,   5.69000E+00,  -2.13220E-01,
      5.70000E+00,  -2.04160E-01,   5.71000E+00,  -3.53200E-02,
      5.72000E+00,   2.04750E-01,   5.73000E+00,   4.95480E-01,
      5.74000E+00,   6.88290E-01,   5.75000E+00,   6.50700E-01,
      5.76000E+00,   5.09960E-01,   5.77000E+00,   3.44680E-01,
      5.78000E+00,   2.48140E-01,   5.79000E+00,   2.14300E-01,
      5.80000E+00,   2.52340E-01,   5.81000E+00,   2.82480E-01,
      5.82000E+00,   2.62710E-01,   5.83000E+00,   2.18140E-01,
      5.84000E+00,   1.39000E-01,   5.85000E+00,   8.78300E-02,
      5.86000E+00,   1.07230E-01,   5.87000E+00,   2.76240E-01,
      5.88000E+00,   4.55750E-01,   5.89000E+00,   5.08170E-01,
      5.90000E+00,   4.97970E-01,   5.91000E+00,   4.77810E-01,
      5.92000E+00,   4.72120E-01,   5.93000E+00,   5.02310E-01,
      5.94000E+00,   5.58620E-01,   5.95000E+00,   5.80770E-01,
      5.96000E+00,   5.95290E-01,   5.97000E+00,   5.98180E-01,
      5.98000E+00,   5.98290E-01,   5.99000E+00,   5.72700E-01,
      6.00000E+00,   5.42750E-01,   6.01000E+00,   5.28270E-01,
      6.02000E+00,   4.99740E-01,   6.03000E+00,   4.14480E-01,
      6.04000E+00,   2.81750E-01,   6.05000E+00,   1.13950E-01,
      6.06000E+00,  -1.00390E-01,   6.07000E+00,  -3.09410E-01,
      6.08000E+00,  -4.28450E-01,   6.09000E+00,  -3.34830E-01,
      6.10000E+00,  -1.23400E-01,   6.11000E+00,   1.51450E-01,
      6.12000E+00,   3.10320E-01,   6.13000E+00,   1.80840E-01,
      6.14000E+00,  -1.66600E-02,   6.15000E+00,  -8.38700E-02,
      6.16000E+00,  -2.17100E-02,   6.17000E+00,   1.22080E-01,
      6.18000E+00,   2.71840E-01,   6.19000E+00,   3.39400E-01,
      6.20000E+00,   3.38280E-01,   6.21000E+00,   3.00150E-01,
      6.22000E+00,   2.90870E-01,   6.23000E+00,   2.81590E-01,
      6.24000E+00,   2.74050E-01,   6.25000E+00,   2.38090E-01,
      6.26000E+00,   1.17170E-01,   6.27000E+00,  -3.61400E-02,
      6.28000E+00,  -1.48050E-01,   6.29000E+00,  -8.54200E-02,
      6.30000E+00,   9.23700E-02,   6.31000E+00,   3.81760E-01,
      6.32000E+00,   6.01590E-01,   6.33000E+00,   5.60360E-01,
      6.34000E+00,   4.48890E-01,   6.35000E+00,   4.12140E-01,
      6.36000E+00,   4.14170E-01,   6.37000E+00,   3.57240E-01,
      6.38000E+00,   3.08300E-01,   6.39000E+00,   2.80200E-01,
      6.40000E+00,   2.37950E-01,   6.41000E+00,   1.80950E-01,
      6.42000E+00,   1.21980E-01,   6.43000E+00,   6.95300E-02,
      6.44000E+00,   1.57100E-02,   6.45000E+00,  -3.68900E-02,
      6.46000E+00,  -9.92000E-02,   6.47000E+00,  -1.77040E-01,
      6.48000E+00,  -2.35070E-01,   6.49000E+00,  -2.69850E-01,
      6.50000E+00,  -2.83540E-01,   6.51000E+00,  -2.85460E-01,
      6.52000E+00,  -3.12650E-01,   6.53000E+00,  -3.35720E-01,
      6.54000E+00,  -3.58860E-01,   6.55000E+00,  -2.42100E-01,
      6.56000E+00,  -7.92000E-02,   6.57000E+00,   1.28290E-01,
      6.58000E+00,   3.61520E-01,   6.59000E+00,   5.91130E-01,
      6.60000E+00,   7.70920E-01,   6.61000E+00,   7.73000E-01,
      6.62000E+00,   7.05700E-01,   6.63000E+00,   5.38530E-01,
      6.64000E+00,   3.79630E-01,   6.65000E+00,   2.50490E-01,
      6.66000E+00,   1.63270E-01,   6.67000E+00,   7.90500E-02,
      6.68000E+00,   2.43800E-02,   6.69000E+00,   1.75700E-02,
      6.70000E+00,   3.11800E-02,   6.71000E+00,   6.75000E-03,
      6.72000E+00,  -5.90900E-02,   6.73000E+00,  -1.79200E-01,
      6.74000E+00,  -3.70540E-01,   6.75000E+00,  -5.78710E-01,
      6.76000E+00,  -7.60930E-01,   6.77000E+00,  -8.33170E-01,
      6.78000E+00,  -8.38710E-01,   6.79000E+00,  -7.61320E-01,
      6.80000E+00,  -6.88510E-01,   6.81000E+00,  -6.34000E-01,
      6.82000E+00,  -6.02780E-01,   6.83000E+00,  -5.65250E-01,
      6.84000E+00,  -5.31420E-01,   6.85000E+00,  -5.45260E-01,
      6.86000E+00,  -5.65730E-01,   6.87000E+00,  -6.32280E-01,
      6.88000E+00,  -6.82420E-01,   6.89000E+00,  -7.11210E-01,
      6.90000E+00,  -7.22190E-01,   6.91000E+00,  -7.27400E-01,
      6.92000E+00,  -7.35380E-01,   6.93000E+00,  -7.01120E-01,
      6.94000E+00,  -6.70350E-01,   6.95000E+00,  -6.34320E-01,
      6.96000E+00,  -6.02850E-01,   6.97000E+00,  -5.54740E-01,
      6.98000E+00,  -4.96820E-01,   6.99000E+00,  -4.20400E-01,
      7.00000E+00,  -3.47640E-01,   7.01000E+00,  -2.87920E-01,
      7.02000E+00,  -2.43660E-01,   7.03000E+00,  -1.98630E-01,
      7.04000E+00,  -1.43400E-01,   7.05000E+00,  -9.12000E-02,
      7.06000E+00,  -3.58800E-02,   7.07000E+00,   1.85000E-02,
      7.08000E+00,   7.64800E-02,   7.09000E+00,   1.70110E-01,
      7.10000E+00,   2.88800E-01,   7.11000E+00,   4.19570E-01,
      7.12000E+00,   5.61800E-01,   7.13000E+00,   6.81090E-01,
      7.14000E+00,   7.63560E-01,   7.15000E+00,   7.48110E-01,
      7.16000E+00,   6.81970E-01,   7.17000E+00,   5.59960E-01,
      7.18000E+00,   4.36610E-01,   7.19000E+00,   3.30090E-01,
      7.20000E+00,   2.38940E-01,   7.21000E+00,   1.49750E-01,
      7.22000E+00,   7.06600E-02,   7.23000E+00,   1.86400E-02,
      7.24000E+00,  -1.08600E-02,   7.25000E+00,  -9.89000E-03,
      7.26000E+00,   6.10000E-03,   7.27000E+00,   1.41400E-02,
      7.28000E+00,   5.06000E-03,   7.29000E+00,  -3.51200E-02,
      7.30000E+00,  -1.10850E-01,   7.31000E+00,  -2.04200E-01,
      7.32000E+00,  -2.93250E-01,   7.33000E+00,  -3.21770E-01,
      7.34000E+00,  -3.30410E-01,   7.35000E+00,  -2.90180E-01,
      7.36000E+00,  -2.49940E-01,   7.37000E+00,  -2.04570E-01,
      7.38000E+00,  -1.45390E-01,   7.39000E+00,  -7.12800E-02,
      7.40000E+00,  -1.66000E-03,   7.41000E+00,  -4.20000E-03,
      7.42000E+00,  -2.64500E-02,   7.43000E+00,  -9.01800E-02,
      7.44000E+00,  -1.49180E-01,   7.45000E+00,  -2.01770E-01,
      7.46000E+00,  -2.49570E-01,   7.47000E+00,  -2.88790E-01,
      7.48000E+00,  -3.14400E-01,   7.49000E+00,  -2.68380E-01,
      7.50000E+00,  -2.04640E-01,   7.51000E+00,  -1.07660E-01,
      7.52000E+00,  -1.84100E-02,   7.53000E+00,   6.04000E-02,
      7.54000E+00,   1.33630E-01,   7.55000E+00,   2.02930E-01,
      7.56000E+00,   2.50130E-01,   7.57000E+00,   2.20360E-01,
      7.58000E+00,   1.62800E-01,   7.59000E+00,   7.18200E-02,
      7.60000E+00,  -6.31000E-03,   7.61000E+00,  -8.00600E-02,
      7.62000E+00,  -1.52920E-01,   7.63000E+00,  -2.33390E-01,
      7.64000E+00,  -3.23140E-01,   7.65000E+00,  -3.86750E-01,
      7.66000E+00,  -4.21940E-01,   7.67000E+00,  -4.04690E-01,
      7.68000E+00,  -3.55260E-01,   7.69000E+00,  -2.84330E-01,
      7.70000E+00,  -2.10500E-01,   7.71000E+00,  -1.45840E-01,
      7.72000E+00,  -9.45300E-02,   7.73000E+00,  -5.46200E-02,
      7.74000E+00,  -2.25200E-02,   7.75000E+00,   3.19000E-03,
      7.76000E+00,   2.51300E-02,   7.77000E+00,   3.72200E-02,
      7.78000E+00,   5.59700E-02,   7.79000E+00,   9.82000E-02,
      7.80000E+00,   1.66690E-01,   7.81000E+00,   2.70160E-01,
      7.82000E+00,   3.77840E-01,   7.83000E+00,   4.53550E-01,
      7.84000E+00,   4.74910E-01,   7.85000E+00,   4.15590E-01,
      7.86000E+00,   3.10880E-01,   7.87000E+00,   1.90020E-01,
      7.88000E+00,   9.39900E-02,   7.89000E+00,   6.31900E-02,
      7.90000E+00,   6.89200E-02,   7.91000E+00,   9.37200E-02,
      7.92000E+00,   1.27090E-01,   7.93000E+00,   1.63740E-01,
      7.94000E+00,   1.89300E-01,   7.95000E+00,   1.65070E-01,
      7.96000E+00,   1.15980E-01,   7.97000E+00,   3.54200E-02,
      7.98000E+00,  -4.94600E-02,   7.99000E+00,  -1.31810E-01,
      8.00000E+00,  -2.02000E-01,   8.01000E+00,  -2.73250E-01,
      8.02000E+00,  -3.53750E-01,   8.03000E+00,  -4.40170E-01,
      8.04000E+00,  -5.36510E-01,   8.05000E+00,  -6.04500E-01,
      8.06000E+00,  -6.62530E-01,   8.07000E+00,  -6.76850E-01,
      8.08000E+00,  -6.79500E-01,   8.09000E+00,  -6.69800E-01,
      8.10000E+00,  -6.47640E-01,   8.11000E+00,  -6.01270E-01,
      8.12000E+00,  -5.37890E-01,   8.13000E+00,  -4.61830E-01,
      8.14000E+00,  -3.80100E-01,   8.15000E+00,  -3.00230E-01,
      8.16000E+00,  -2.29930E-01,   8.17000E+00,  -1.89590E-01,
      8.18000E+00,  -1.61820E-01,   8.19000E+00,  -1.62520E-01,
      8.20000E+00,  -1.49310E-01,   8.21000E+00,  -1.13540E-01,
      8.22000E+00,  -5.71300E-02,   8.23000E+00,  -7.73000E-03,
      8.24000E+00,   2.60600E-02,   8.25000E+00,   3.41800E-02,
      8.26000E+00,   1.83800E-02,   8.27000E+00,  -1.87500E-02,
      8.28000E+00,  -6.65300E-02,   8.29000E+00,  -1.08270E-01,
      8.30000E+00,  -1.52840E-01,   8.31000E+00,  -1.77910E-01,
      8.32000E+00,  -2.01400E-01,   8.33000E+00,  -2.18360E-01,
      8.34000E+00,  -2.23910E-01,   8.35000E+00,  -2.10020E-01,
      8.36000E+00,  -1.82380E-01,   8.37000E+00,  -1.60300E-01,
      8.38000E+00,  -1.37520E-01,   8.39000E+00,  -1.19740E-01,
      8.40000E+00,  -9.60700E-02,   8.41000E+00,  -7.62400E-02,
      8.42000E+00,  -6.47200E-02,   8.43000E+00,  -7.73500E-02,
      8.44000E+00,  -1.15990E-01,   8.45000E+00,  -1.55410E-01,
      8.46000E+00,  -1.83390E-01,   8.47000E+00,  -1.40540E-01,
      8.48000E+00,  -5.70300E-02,   8.49000E+00,   7.00500E-02,
      8.50000E+00,   2.02900E-01,   8.51000E+00,   2.98990E-01,
      8.52000E+00,   3.59860E-01,   8.53000E+00,   3.51960E-01,
      8.54000E+00,   3.23780E-01,   8.55000E+00,   2.81700E-01,
      8.56000E+00,   2.41910E-01,   8.57000E+00,   1.98190E-01,
      8.58000E+00,   1.58440E-01,   8.59000E+00,   1.33960E-01,
      8.60000E+00,   1.29810E-01,   8.61000E+00,   1.46720E-01,
      8.62000E+00,   1.77670E-01,   8.63000E+00,   2.19290E-01,
      8.64000E+00,   2.37470E-01,   8.65000E+00,   2.16000E-01,
      8.66000E+00,   1.76390E-01,   8.67000E+00,   1.30010E-01,
      8.68000E+00,   1.02350E-01,   8.69000E+00,   9.19400E-02,
      8.70000E+00,   9.32000E-02,   8.71000E+00,   9.95900E-02,
      8.72000E+00,   9.33400E-02,   8.73000E+00,   1.01610E-01,
      8.74000E+00,   9.15900E-02,   8.75000E+00,   7.92200E-02,
      8.76000E+00,   6.25100E-02,   8.77000E+00,   5.85200E-02,
      8.78000E+00,   7.58700E-02,   8.79000E+00,   1.06590E-01,
      8.80000E+00,   1.45520E-01,   8.81000E+00,   1.55040E-01,
      8.82000E+00,   1.43740E-01,   8.83000E+00,   8.88900E-02,
      8.84000E+00,   1.00300E-02,   8.85000E+00,  -8.80200E-02,
      8.86000E+00,  -1.90960E-01,   8.87000E+00,  -2.84530E-01,
      8.88000E+00,  -3.55170E-01,   8.89000E+00,  -3.62630E-01,
      8.90000E+00,  -3.36070E-01,   8.91000E+00,  -2.74800E-01,
      8.92000E+00,  -2.01360E-01,   8.93000E+00,  -1.27660E-01,
      8.94000E+00,  -7.07500E-02,   8.95000E+00,  -6.95600E-02,
      8.96000E+00,  -9.68100E-02,   8.97000E+00,  -1.53280E-01,
      8.98000E+00,  -2.25200E-01,   8.99000E+00,  -2.81870E-01,
      9.00000E+00,  -2.96760E-01,   9.01000E+00,  -2.19740E-01,
      9.02000E+00,  -9.51500E-02,   9.03000E+00,   4.01600E-02,
      9.04000E+00,   1.45060E-01,   9.05000E+00,   1.67330E-01,
      9.06000E+00,   1.61230E-01,   9.07000E+00,   1.69130E-01,
      9.08000E+00,   1.97370E-01,   9.09000E+00,   2.42160E-01,
      9.10000E+00,   2.90600E-01,   9.11000E+00,   3.39710E-01,
      9.12000E+00,   3.75120E-01,   9.13000E+00,   3.87760E-01,
      9.14000E+00,   3.94670E-01,   9.15000E+00,   3.82860E-01,
      9.16000E+00,   3.73010E-01,   9.17000E+00,   3.63850E-01,
      9.18000E+00,   3.51930E-01,   9.19000E+00,   3.13970E-01,
      9.20000E+00,   2.56300E-01,   9.21000E+00,   1.87200E-01,
      9.22000E+00,   1.10260E-01,   9.23000E+00,   4.22600E-02,
      9.24000E+00,  -1.35600E-02,   9.25000E+00,  -3.08700E-02,
      9.26000E+00,  -4.29100E-02,   9.27000E+00,  -4.44900E-02,
      9.28000E+00,  -4.34400E-02,   9.29000E+00,  -3.13500E-02,
      9.30000E+00,  -5.00000E-03,   9.31000E+00,   2.04200E-02,
      9.32000E+00,   5.44400E-02,   9.33000E+00,   7.30000E-02,
      9.34000E+00,   8.57700E-02,   9.35000E+00,   9.84200E-02,
      9.36000E+00,   1.12180E-01,   9.37000E+00,   1.42310E-01,
      9.38000E+00,   1.82480E-01,   9.39000E+00,   2.39470E-01,
      9.40000E+00,   2.88150E-01,   9.41000E+00,   2.95680E-01,
      9.42000E+00,   2.72160E-01,   9.43000E+00,   2.08000E-01,
      9.44000E+00,   1.33050E-01,   9.45000E+00,   6.27100E-02,
      9.46000E+00,   9.42000E-03,   9.47000E+00,  -2.93800E-02,
      9.48000E+00,  -4.66300E-02,   9.49000E+00,  -4.58600E-02,
      9.50000E+00,  -3.36900E-02,   9.51000E+00,  -2.26600E-02,
      9.52000E+00,  -2.81500E-02,   9.53000E+00,  -5.49500E-02,
      9.54000E+00,  -1.10550E-01,   9.55000E+00,  -1.72880E-01,
      9.56000E+00,  -2.40410E-01,   9.57000E+00,  -2.76120E-01,
      9.58000E+00,  -2.97080E-01,   9.59000E+00,  -2.99300E-01,
      9.60000E+00,  -2.89830E-01,   9.61000E+00,  -2.57650E-01,
      9.62000E+00,  -2.15040E-01,   9.63000E+00,  -1.73700E-01,
      9.64000E+00,  -1.34760E-01,   9.65000E+00,  -1.11510E-01,
      9.66000E+00,  -1.04430E-01,   9.67000E+00,  -1.28240E-01,
      9.68000E+00,  -1.49020E-01,   9.69000E+00,  -1.70480E-01,
      9.70000E+00,  -1.78140E-01,   9.71000E+00,  -1.71540E-01,
      9.72000E+00,  -1.58550E-01,   9.73000E+00,  -1.44150E-01,
      9.74000E+00,  -1.29710E-01,   9.75000E+00,  -9.79400E-02,
      9.76000E+00,  -6.97900E-02,   9.77000E+00,  -4.24100E-02,
      9.78000E+00,  -1.61500E-02,   9.79000E+00,   1.20800E-02,
      9.80000E+00,   3.71500E-02,   9.81000E+00,   5.84300E-02,
      9.82000E+00,   6.95900E-02,   9.83000E+00,   7.20300E-02,
      9.84000E+00,   7.34400E-02,   9.85000E+00,   7.57400E-02,
      9.86000E+00,   8.33900E-02,   9.87000E+00,   7.89100E-02,
      9.88000E+00,   7.14800E-02,   9.89000E+00,   4.69400E-02,
      9.90000E+00,   2.48400E-02,   9.91000E+00,   5.69000E-03,
      9.92000E+00,  -7.83000E-03,   9.93000E+00,  -2.44900E-02,
      9.94000E+00,  -4.07200E-02,   9.95000E+00,  -5.94600E-02,
      9.96000E+00,  -8.08300E-02,   9.97000E+00,  -1.05780E-01,
      9.98000E+00,  -1.33510E-01,   9.99000E+00,  -1.47620E-01,
      1.00000E+01,  -1.56510E-01,   1.00100E+01,  -1.33500E-01,
      1.00200E+01,  -1.12300E-01,   1.00300E+01,  -8.87600E-02,
      1.00400E+01,  -6.65300E-02,   1.00500E+01,  -2.87400E-02,
      1.00600E+01,   2.61800E-02,   1.00700E+01,   9.03600E-02,
      1.00800E+01,   1.53130E-01,   1.00900E+01,   1.86710E-01,
      1.01000E+01,   1.92640E-01,   1.01100E+01,   1.65740E-01,
      1.01200E+01,   1.29540E-01,   1.01300E+01,   9.24400E-02,
      1.01400E+01,   7.01600E-02,   1.01500E+01,   6.54800E-02,
      1.01600E+01,   7.05400E-02,   1.01700E+01,   8.30200E-02,
      1.01800E+01,   9.44600E-02,   1.01900E+01,   9.89700E-02,
      1.02000E+01,   9.32000E-02,   1.02100E+01,   6.71200E-02,
      1.02200E+01,   3.12000E-02,   1.02300E+01,  -1.81300E-02,
      1.02400E+01,  -6.06500E-02,   1.02500E+01,  -9.10100E-02,
      1.02600E+01,  -1.10100E-01,   1.02700E+01,  -1.21300E-01,
      1.02800E+01,  -1.28030E-01,   1.02900E+01,  -1.33780E-01,
      1.03000E+01,  -1.37870E-01,   1.03100E+01,  -1.42070E-01,
      1.03200E+01,  -1.45450E-01,   1.03300E+01,  -1.45140E-01,
      1.03400E+01,  -1.42940E-01,   1.03500E+01,  -1.44600E-01,
      1.03600E+01,  -1.54360E-01,   1.03700E+01,  -1.76070E-01,
      1.03800E+01,  -2.14250E-01,   1.03900E+01,  -2.66740E-01,
      1.04000E+01,  -3.24950E-01,   1.04100E+01,  -3.67990E-01,
      1.04200E+01,  -4.03790E-01,   1.04300E+01,  -4.19490E-01,
      1.04400E+01,  -4.28580E-01,   1.04500E+01,  -4.31020E-01,
      1.04600E+01,  -4.29290E-01,   1.04700E+01,  -4.20440E-01,
      1.04800E+01,  -4.09070E-01,   1.04900E+01,  -3.98800E-01,
      1.05000E+01,  -3.90800E-01,   1.05100E+01,  -3.83470E-01,
      1.05200E+01,  -3.78640E-01,   1.05300E+01,  -3.75300E-01,
      1.05400E+01,  -3.70150E-01,   1.05500E+01,  -3.64120E-01,
      1.05600E+01,  -3.57010E-01,   1.05700E+01,  -3.50460E-01,
      1.05800E+01,  -3.45520E-01,   1.05900E+01,  -3.35660E-01,
      1.06000E+01,  -3.16650E-01,   1.06100E+01,  -2.82770E-01,
      1.06200E+01,  -2.32840E-01,   1.06300E+01,  -1.75420E-01,
      1.06400E+01,  -1.16060E-01,   1.06500E+01,  -6.53100E-02,
      1.06600E+01,  -2.96100E-02,   1.06700E+01,  -6.55000E-03,
      1.06800E+01,   5.59000E-03,   1.06900E+01,   1.79300E-02,
      1.07000E+01,   4.32900E-02,   1.07100E+01,   8.35400E-02,
      1.07200E+01,   1.37040E-01,   1.07300E+01,   1.79140E-01,
      1.07400E+01,   2.16410E-01,   1.07500E+01,   2.39160E-01,
      1.07600E+01,   2.52860E-01,   1.07700E+01,   2.53710E-01,
      1.07800E+01,   2.42220E-01,   1.07900E+01,   2.09760E-01,
      1.08000E+01,   1.63850E-01,   1.08100E+01,   1.12440E-01,
      1.08200E+01,   5.55800E-02,   1.08300E+01,   8.70000E-03,
      1.08400E+01,  -3.61500E-02,   1.08500E+01,  -7.02500E-02,
      1.08600E+01,  -1.10420E-01,   1.08700E+01,  -1.60880E-01,
      1.08800E+01,  -2.10160E-01,   1.08900E+01,  -2.58210E-01,
      1.09000E+01,  -2.86820E-01,   1.09100E+01,  -2.91280E-01,
      1.09200E+01,  -2.79570E-01,   1.09300E+01,  -2.51770E-01,
      1.09400E+01,  -2.09710E-01,   1.09500E+01,  -1.47600E-01,
      1.09600E+01,  -8.80800E-02,   1.09700E+01,  -4.63900E-02,
      1.09800E+01,  -2.77100E-02,   1.09900E+01,  -3.22400E-02,
      1.10000E+01,  -3.60200E-02,   1.10100E+01,  -9.34000E-03,
      1.10200E+01,   3.75200E-02,   1.10300E+01,   9.66500E-02,
      1.10400E+01,   1.62070E-01,   1.10500E+01,   2.24550E-01,
      1.10600E+01,   2.74060E-01,   1.10700E+01,   2.90840E-01,
      1.10800E+01,   2.88070E-01,   1.10900E+01,   2.58680E-01,
      1.11000E+01,   2.23550E-01,   1.11100E+01,   1.85490E-01,
      1.11200E+01,   1.48100E-01,   1.11300E+01,   1.01910E-01,
      1.11400E+01,   5.38000E-02,   1.11500E+01,   1.50400E-02,
      1.11600E+01,  -1.21000E-02,   1.11700E+01,  -1.14100E-02,
      1.11800E+01,   1.46000E-03,   1.11900E+01,   2.58800E-02,
      1.12000E+01,   5.17900E-02,   1.12100E+01,   8.11900E-02,
      1.12200E+01,   1.11400E-01,   1.12300E+01,   1.32220E-01,
      1.12400E+01,   1.44960E-01,   1.12500E+01,   1.29250E-01,
      1.12600E+01,   9.66600E-02,   1.12700E+01,   5.25000E-02,
      1.12800E+01,   5.40000E-04,   1.12900E+01,  -5.07100E-02,
      1.13000E+01,  -9.23900E-02,   1.13100E+01,  -9.67500E-02,
      1.13200E+01,  -8.64700E-02,   1.13300E+01,  -5.98900E-02,
      1.13400E+01,  -2.30500E-02,   1.13500E+01,   2.38500E-02,
      1.13600E+01,   7.61300E-02,   1.13700E+01,   1.19440E-01,
      1.13800E+01,   1.54130E-01,   1.13900E+01,   1.62390E-01,
      1.14000E+01,   1.60760E-01,   1.14100E+01,   1.54340E-01,
      1.14200E+01,   1.48460E-01,   1.14300E+01,   1.39270E-01,
      1.14400E+01,   1.28530E-01,   1.14500E+01,   1.18010E-01,
      1.14600E+01,   1.08680E-01,   1.14700E+01,   1.15270E-01,
      1.14800E+01,   1.25360E-01,   1.14900E+01,   1.46250E-01,
      1.15000E+01,   1.68490E-01,   1.15100E+01,   1.87660E-01,
      1.15200E+01,   2.02430E-01,   1.15300E+01,   2.00100E-01,
      1.15400E+01,   1.84720E-01,   1.15500E+01,   1.42860E-01,
      1.15600E+01,   9.25500E-02,   1.15700E+01,   4.41100E-02,
      1.15800E+01,   5.42000E-03,   1.15900E+01,  -1.22600E-02,
      1.16000E+01,  -6.82000E-03,   1.16100E+01,   2.72700E-02,
      1.16200E+01,   7.68100E-02,   1.16300E+01,   1.35030E-01,
      1.16400E+01,   1.92640E-01,   1.16500E+01,   2.47570E-01,
      1.16600E+01,   2.91950E-01,   1.16700E+01,   3.19010E-01,
      1.16800E+01,   3.31130E-01,   1.16900E+01,   3.23350E-01,
      1.17000E+01,   3.04770E-01,   1.17100E+01,   2.69110E-01,
      1.17200E+01,   2.30800E-01,   1.17300E+01,   1.89830E-01,
      1.17400E+01,   1.46400E-01,   1.17500E+01,   1.01510E-01,
      1.17600E+01,   5.43800E-02,   1.17700E+01,   1.06100E-02,
      1.17800E+01,  -2.55500E-02,   1.17900E+01,  -4.28000E-02,
      1.18000E+01,  -4.65000E-02,   1.18100E+01,  -3.27100E-02,
      1.18200E+01,  -9.01000E-03,   1.18300E+01,   1.57800E-02,
      1.18400E+01,   3.74700E-02,   1.18500E+01,   4.62300E-02,
      1.18600E+01,   4.12900E-02,   1.18700E+01,   1.47000E-02,
      1.18800E+01,  -1.08300E-02,   1.18900E+01,  -2.07300E-02,
      1.19000E+01,  -1.27700E-02,   1.19100E+01,   1.80400E-02,
      1.19200E+01,   6.04400E-02,   1.19300E+01,   1.09180E-01,
      1.19400E+01,   1.60050E-01,   1.19500E+01,   2.01470E-01,
      1.19600E+01,   2.25440E-01,   1.19700E+01,   2.12190E-01,
      1.19800E+01,   1.68110E-01,   1.19900E+01,   8.80300E-02,
      1.20000E+01,   0.00000E+00,     )
                          );
# AMPLITUDE 0.25 G

ACCELERO=CALC_FONCTION( COMB=_F( FONCTION = LBNSNL1, COEF = 2.45) );

# PESANTEUR VERTICALE

CHAPP=AFFE_CHAR_MECA(MODELE=STICKMOD,
                      PESANTEUR= _F(GRAVITE=9.81,
                                    DIRECTION=(0.,0.,-1.,),),);

#
#  MONO-APPUI EN X

MONOX=AFFE_CHAR_MECA(MODELE=STICKMOD,
                      PESANTEUR= _F(GRAVITE=1.0,
                                    DIRECTION=(1.0,0.0,0.0,),),);


#
nbinst=1000;

TEMPLI=DEFI_LIST_REEL(DEBUT=0.0,
                      INTERVALLE=_F(JUSQU_A=5.00,
                                    NOMBRE=nbinst,),);

L_INST=DEFI_LIST_REEL(DEBUT=-1.0,
                      INTERVALLE=_F(JUSQU_A=0.0,
                                    NOMBRE=1,),);

EVOL=STAT_NON_LINE(MODELE=STICKMOD,
                      CHAM_MATER=CHAMPMAT,
                      CARA_ELEM=CARA_ELE,
                      SOLVEUR=_F(RENUM='METIS',
                                 STOP_SINGULIER='NON',
                                 METHODE='MULT_FRONT',
                                 NPREC=15,
                                 SYME='NON'),
                      EXCIT=(
                             _F(CHARGE=COND_LIM,),
                             _F(CHARGE=CHAPP,),),
                      COMPORTEMENT=(_F(RELATION='ELAS',
                                    TOUT='OUI',),
                                 _F(RELATION='DIS_CHOC',
                                    GROUP_MA='PRADIER',),),
                      INCREMENT=_F(LIST_INST=L_INST,),
                      NEWTON=_F(REAC_ITER=1,
                                PREDICTION='ELASTIQUE'),
                      CONVERGENCE=_F(RESI_GLOB_RELA=1e-08,
                                     ITER_GLOB_MAXI=10,),);

ACCE0 = CREA_CHAMP(TYPE_CHAM='NOEU_DEPL_R',OPERATION='AFFE',MODELE=STICKMOD,
                   AFFE=_F(TOUT='OUI',NOM_CMP=('DX', 'DY', 'DZ', 'DRX', 'DRY', 'DRZ' ,),
                                      VALE = (0., 0., 0.,0., 0., 0.,),),);


EVOL=DYNA_NON_LINE(reuse=EVOL,MODELE=STICKMOD,
                      CHAM_MATER=CHAMPMAT,
                      CARA_ELEM=CARA_ELE,

                      EXCIT=(
                             _F(CHARGE=COND_LIM,),
                             _F(CHARGE=CHAPP,),
                             _F(CHARGE=MONOX,
                                FONC_MULT=ACCELERO,),),
                      COMPORTEMENT=(_F(RELATION='ELAS',
                                    TOUT='OUI',),
                                 _F(RELATION='DIS_CHOC',
                                    GROUP_MA='PRADIER',),),
                      ETAT_INIT=_F(INST=0.0,
                                   EVOL_NOLI=EVOL,
#  On impose explicitement une acceleration initiale nulle car la matrice de masse etant singuliere
#  a cause du modele (discrets sans masses), on ne peut calculer une acceleration non nulle :
                                   ACCE=ACCE0,),
                      INCREMENT=_F(LIST_INST=TEMPLI,INST_FIN=3.2,),
                      SCHEMA_TEMPS=_F(SCHEMA='HHT',ALPHA=-0.0,
                                      FORMULATION='DEPLACEMENT'),
                      NEWTON=_F(REAC_ITER=1,),
                      CONVERGENCE=_F(RESI_GLOB_RELA=1e-06,
                                     ITER_GLOB_MAXI=20,),
                      ARCHIVAGE=_F(LIST_INST=TEMPLI,),);

#
# CALCUL DU POURCENTAGE DE DECOLLEMENT A CHAQUE INSTANT
#------------------------------------------------------

TB=POST_DECOLLEMENT(RESULTAT=EVOL,
                    GROUP_MA='SRADIER',
                    INFO=2)

TEST_TABLE(CRITERE='RELATIF',
           VALE_CALC=0.0,
           
           NOM_PARA='%DECOL',
           TABLE=TB,
           FILTRE=_F(NOM_PARA='INST',
                     VALE=3.1299999999999999,),
           )

TEST_TABLE(CRITERE='RELATIF',
           VALE_CALC=0.61110755195604,
           
           NOM_PARA='%DECOL',
           TABLE=TB,
           FILTRE=_F(NOM_PARA='INST',
                     VALE=3.1349999999999998,),
           )

TEST_TABLE(CRITERE='RELATIF',
           VALE_CALC=2.4085153030045,
           
           NOM_PARA='%DECOL',
           TABLE=TB,
           FILTRE=_F(NOM_PARA='INST',
                     VALE=3.1499999999999999,),
           )

TEST_TABLE(CRITERE='RELATIF',
           VALE_CALC=0.61110755195604,
           
           NOM_PARA='%DECOL',
           TABLE=TB,
           FILTRE=_F(NOM_PARA='INST',
                     VALE=3.165,),
           )

TEST_TABLE(CRITERE='RELATIF',
           VALE_CALC=0.0,
           
           NOM_PARA='%DECOL',
           TABLE=TB,
           FILTRE=_F(NOM_PARA='INST',
                     VALE=3.1699999999999999,),
           )

FIN( );
