# TITRE TEST DE INCLUDE_MATERIAU - UNITE DE LONGUEUR EN MILLIMETRES
# ======================================================================
# COPYRIGHT (C) 1991 - 2012  EDF R&D                  WWW.CODE-ASTER.ORG
# THIS PROGRAM IS FREE SOFTWARE; YOU CAN REDISTRIBUTE IT AND/OR MODIFY
# IT UNDER THE TERMS OF THE GNU GENERAL PUBLIC LICENSE AS PUBLISHED BY
# THE FREE SOFTWARE FOUNDATION; EITHER VERSION 2 OF THE LICENSE, OR
# (AT YOUR OPTION) ANY LATER VERSION.
#
# THIS PROGRAM IS DISTRIBUTED IN THE HOPE THAT IT WILL BE USEFUL, BUT
# WITHOUT ANY WARRANTY; WITHOUT EVEN THE IMPLIED WARRANTY OF
# MERCHANTABILITY OR FITNESS FOR A PARTICULAR PURPOSE. SEE THE GNU
# GENERAL PUBLIC LICENSE FOR MORE DETAILS.
#
# YOU SHOULD HAVE RECEIVED A COPY OF THE GNU GENERAL PUBLIC LICENSE
# ALONG WITH THIS PROGRAM; IF NOT, WRITE TO EDF R&D CODE_ASTER,
#    1 AVENUE DU GENERAL DE GAULLE, 92141 CLAMART CEDEX, FRANCE.
# ======================================================================


DEBUT(CODE=_F(NIV_PUB_WEB='INTRANET'), IMPR_MACRO='OUI', DEBUG=_F(SDVERI='OUI'))

MA=LIRE_MAILLAGE( )

INCLUDE(UNITE=38 )

#
# LES 49 MATERIAUX NE PASSENT PAS :
#<E> <INCLUDE_MATERIAU> <ANALYSE DES COMMANDES (ERREUR 1C)> VOUS NE POUVEZ
#     UTILISER PLUS DE 30 NIVEAUX DE PROFONDEUR POUR DES APPELS PAR LA PROCEDURE
#      >CALL<
# LA SUITE EST DANS ZZZZ118D.COM1

FIN()
