# MODIF  DATE 18/02/2013   AUTEUR SELLENET N.SELLENET 
# TITRE VALIDATION DU CALCUL DE LA MATRICE DE MASSE AVEC UNE MODELISATION A GRADIENT
# zzzz254a.para = tps_job 300 mem_job 512Mo ncpus 1 liste_test R
#            CONFIGURATION MANAGEMENT OF EDF VERSION
# ======================================================================
# COPYRIGHT (C) 1991 - 2013  EDF R&D                  WWW.CODE-ASTER.ORG
# THIS PROGRAM IS FREE SOFTWARE; YOU CAN REDISTRIBUTE IT AND/OR MODIFY  
# IT UNDER THE TERMS OF THE GNU GENERAL PUBLIC LICENSE AS PUBLISHED BY  
# THE FREE SOFTWARE FOUNDATION; EITHER VERSION 2 OF THE LICENSE, OR     
# (AT YOUR OPTION) ANY LATER VERSION.                                                    
#                                                                       
# THIS PROGRAM IS DISTRIBUTED IN THE HOPE THAT IT WILL BE USEFUL, BUT   
# WITHOUT ANY WARRANTY; WITHOUT EVEN THE IMPLIED WARRANTY OF            
# MERCHANTABILITY OR FITNESS FOR A PARTICULAR PURPOSE. SEE THE GNU      
# GENERAL PUBLIC LICENSE FOR MORE DETAILS.                              
#                                                                       
# YOU SHOULD HAVE RECEIVED A COPY OF THE GNU GENERAL PUBLIC LICENSE     
# ALONG WITH THIS PROGRAM; IF NOT, WRITE TO EDF R&D CODE_ASTER,         
#    1 AVENUE DU GENERAL DE GAULLE, 92141 CLAMART CEDEX, FRANCE.        
# ======================================================================

DEBUT(CODE=_F(NOM='ZZZZ254A',NIV_PUB_WEB='INTERNET'),DEBUG=_F(SDVERI='OUI'));

MAILLAGE=LIRE_MAILLAGE(FORMAT='MED',);

MATER=DEFI_MATERIAU(ELAS=_F(E=30000.0,
                            NU=0.2,
                            RHO=2764.0,
                            AMOR_ALPHA=1e-4,
                            AMOR_BETA=1e-1,),
                    ECRO_LINE=_F(D_SIGM_EPSI=-1950.0,
                                 SY=3.0,),
                    NON_LOCAL=_F(LONG_CARA=1.0,),);

CHMAT=AFFE_MATERIAU(MAILLAGE=MAILLAGE,
                    AFFE=_F(TOUT='OUI',
                            MATER=MATER,),);

MODELE=AFFE_MODELE(MAILLAGE=MAILLAGE,
                   AFFE=_F(TOUT='OUI',
                           PHENOMENE='MECANIQUE',
                           MODELISATION='3D_GRAD_EPSI',),);

CL=AFFE_CHAR_MECA(MODELE=MODELE,
                  DDL_IMPO=(_F(GROUP_NO='CENTER',
                               LIAISON='ENCASTRE',),
                            _F(GROUP_MA='BAS',
                               DZ=0.0,),
                            _F(GROUP_MA='CLDX',
                               DX=0.0,),
                            _F(GROUP_MA='CLDY',
                               DY=0.0,),),);

TRACTION=AFFE_CHAR_MECA(MODELE=MODELE,
                        FORCE_FACE=_F(GROUP_MA='HAUT',
                                      FZ=100.0,),);

INSTANT=DEFI_LIST_REEL(DEBUT=0.0,
                       INTERVALLE=_F(JUSQU_A=0.1,
                                     NOMBRE=100,),);

FONCMULT=DEFI_FONCTION(NOM_PARA='INST',VALE=(0.0,1.0,
                             1.0,1.0,
                             ),PROL_DROITE='LINEAIRE',PROL_GAUCHE='LINEAIRE',);

ACCE0 = CREA_CHAMP(TYPE_CHAM='NOEU_DEPL_R',OPERATION='AFFE',MODELE=MODELE,
                   AFFE=_F(TOUT='OUI',
                           NOM_CMP=('DX', 'DY', 'DZ', 'EPXX', 'EPYY', 'EPZZ', 'EPXY', 'EPXZ', 'EPYZ',),
                           VALE = (0., 0., 0., 0., 0., 0., 0., 0., 0.,),),);


RESU=DYNA_NON_LINE(MODELE=MODELE,
                   CHAM_MATER=CHMAT,
#  On impose explicitement une acceleration initiale nulle car la matrice de masse etant singuliere
#  a cause du modele (les DDL en gradient de variables ne contribuent pas a la masse), 
#  on ne peut calculer une acceleration non nulle :
                   ETAT_INIT=_F(ACCE=ACCE0),
                   EXCIT=(_F(CHARGE=CL,),
                          _F(CHARGE=TRACTION,
                             FONC_MULT=FONCMULT,),),
                   COMP_INCR=_F(RELATION='ENDO_FRAGILE',),
                   INCREMENT=_F(LIST_INST=INSTANT,),
                   SCHEMA_TEMPS=_F(SCHEMA='NEWMARK',
                                   FORMULATION='DEPLACEMENT',),);

#On recalcule la matrice de masse elementaire pour le test

MAT=CALC_MATR_ELEM(OPTION='MASS_MECA',
                   MODELE=MODELE,
                   CHAM_MATER=CHMAT,);

NUME=NUME_DDL(MODELE=MODELE,);

MATASS=ASSE_MATRICE(MATR_ELEM=MAT,
                    NUME_DDL=NUME,);

#Test de non regression sur la matrice de masse

TEST_RESU(OBJET=_F(VALE_CALC=7954.1777777776997,
                   TOLE_MACHINE=1.E-3,
                   NOM='MAT            .M01.RESL',),
          )

FIN();
