# ======================================================================
# COPYRIGHT (C) 1991 - 2016  EDF R&D                  WWW.CODE-ASTER.ORG
# THIS PROGRAM IS FREE SOFTWARE; YOU CAN REDISTRIBUTE IT AND/OR MODIFY
# IT UNDER THE TERMS OF THE GNU GENERAL PUBLIC LICENSE AS PUBLISHED BY
# THE FREE SOFTWARE FOUNDATION; EITHER VERSION 2 OF THE LICENSE, OR
# (AT YOUR OPTION) ANY LATER VERSION.
#
# THIS PROGRAM IS DISTRIBUTED IN THE HOPE THAT IT WILL BE USEFUL, BUT
# WITHOUT ANY WARRANTY; WITHOUT EVEN THE IMPLIED WARRANTY OF
# MERCHANTABILITY OR FITNESS FOR A PARTICULAR PURPOSE. SEE THE GNU
# GENERAL PUBLIC LICENSE FOR MORE DETAILS.
#
# YOU SHOULD HAVE RECEIVED A COPY OF THE GNU GENERAL PUBLIC LICENSE
# ALONG WITH THIS PROGRAM; IF NOT, WRITE TO EDF R&D CODE_ASTER,
#    1 AVENUE DU GENERAL DE GAULLE, 92141 CLAMART CEDEX, FRANCE.
# ======================================================================

DEBUT(CODE=_F(NIV_PUB_WEB='INTERNET'),DEBUG=_F(SDVERI='OUI'))

MA0=LIRE_MAILLAGE(FORMAT='MED')

MA=CREA_MAILLAGE(
               MAILLAGE=MA0,
               CREA_MAILLE=(_F(NOM = 'DKT_X',
                               GROUP_MA = 'COQ_X',
                               PREF_MAILLE = 'B',
                              ),
                            _F(NOM = 'DKT_Y',
                               GROUP_MA = 'COQ_Y',
                               PREF_MAILLE = 'B',
                              ),
                            _F(NOM = 'DKT_Z',
                               GROUP_MA = 'COQ_Z',
                               PREF_MAILLE = 'B',
                              ),
                            ),
                           )

BETON=DEFI_MATERIAU(ELAS=_F(E = 1.E9,NU = 0.3,),)

ACIER=DEFI_MATERIAU(ELAS_MEMBRANE =_F(M_LLLL = 5E8,
                                      M_LLTT = 1E4,
                                      M_LLLT = 1E4,
                                      M_TTTT = 1E4,
                                      M_TTLT = 1E4,
                                      M_LTLT = 1E4,),)



MATAF=AFFE_MATERIAU(MAILLAGE=MA,
                    AFFE=(_F(GROUP_MA = ('DKT_X','DKT_Y','DKT_Z'),
                             MATER = BETON,),
                          _F(GROUP_MA = ('COQ_X','COQ_Y','COQ_Z'),
                             MATER = ACIER,),
                   ))

#-----------------------------------------------------------------------

MODX=AFFE_MODELE(MAILLAGE=MA,     
                  AFFE=(_F(GROUP_MA = 'DKT_X',
                           PHENOMENE = 'MECANIQUE',
                           MODELISATION = 'DKT',),
                        _F(GROUP_MA = 'COQ_X',
                           PHENOMENE = 'MECANIQUE',
                           MODELISATION = 'MEMBRANE',),
                        )
                )

MODY=AFFE_MODELE(MAILLAGE=MA,     
                  AFFE=(_F(GROUP_MA = 'DKT_Y',
                           PHENOMENE = 'MECANIQUE',
                           MODELISATION = 'DKT',),
                        _F(GROUP_MA = 'COQ_Y',
                           PHENOMENE = 'MECANIQUE',
                           MODELISATION = 'MEMBRANE',),
                        )
                )

MODZ=AFFE_MODELE(MAILLAGE=MA,     
                  AFFE=(_F(GROUP_MA = 'DKT_Z',
                           PHENOMENE = 'MECANIQUE',
                           MODELISATION = 'DKT',),
                        _F(GROUP_MA = 'COQ_Z',
                           PHENOMENE = 'MECANIQUE',
                           MODELISATION = 'MEMBRANE',),
                        )
                )

#-----------------------------------------------------------------------

CARX=AFFE_CARA_ELEM(MODELE=MODX,
                    COQUE=(_F(GROUP_MA = 'DKT_X',
                              EPAIS = .2,
                              ANGL_REP = (0.0, 0.0,),
                              ),),
                    MEMBRANE=(_F(GROUP_MA = 'COQ_X',
                              ANGL_REP = (0.0, 0.0,),
                              EPAIS = 1.0
                              ),),)

CARY=AFFE_CARA_ELEM(MODELE=MODY,
                    COQUE=(_F(GROUP_MA = 'DKT_Y',
                              EPAIS = .2,
                              ANGL_REP = (0.0, 0.0,),
                              ),),
                    MEMBRANE=(_F(GROUP_MA = 'COQ_Y',
                              ANGL_REP = (90.0, 0.0,),
                              EPAIS = 1.0),),)

CARZ=AFFE_CARA_ELEM(MODELE=MODZ,
                    COQUE=(_F(GROUP_MA = 'DKT_Z',
                              EPAIS = .2,
                              ANGL_REP = (45.0, 0.0,),
                              ),),
                    MEMBRANE=(_F(GROUP_MA = 'COQ_Z',
                              ANGL_REP = (0.0, 90.0,),
                              EPAIS = 1.0),),)

#-----------------------------------------------------------------------

def escalier(x):
    if x< 0.:
        return 0.
    if x<=1.:
        return 1.
    elif x<=2.:
        return 2.
    elif x<=3.:
        return 3
    else:
        return 0.

EXX_X=FORMULE(NOM_PARA = ('X','INST'),
            VALE     = '1.E-3*escalier(X)*INST',)
EYY_X=FORMULE(NOM_PARA = ('X','INST'),
            VALE     = '2.E-3*escalier(X)*INST',)
EXY_X=FORMULE(NOM_PARA = ('X','INST'),
            VALE     = '3.E-3*escalier(X)*INST',)

EXX_Y=FORMULE(NOM_PARA = ('Y','INST'),
            VALE     = '1.E-3*escalier(Y)*INST',)
EYY_Y=FORMULE(NOM_PARA = ('Y','INST'),
            VALE     = '2.E-3*escalier(Y)*INST',)
EXY_Y=FORMULE(NOM_PARA = ('Y','INST'),
            VALE     = '3.E-3*escalier(Y)*INST',)

            
EXX_Z=FORMULE(NOM_PARA = ('Z','INST'),
            VALE     = '1.E-3*escalier(Z)*INST',)
EYY_Z=FORMULE(NOM_PARA = ('Z','INST'),
            VALE     = '2.E-3*escalier(Z)*INST',)
EXY_Z=FORMULE(NOM_PARA = ('Z','INST'),
            VALE     = '3.E-3*escalier(Z)*INST',)

#-----------------------------------------------------------------------

BLOCX=AFFE_CHAR_MECA(MODELE=MODX,
                    DDL_IMPO=(_F(GROUP_NO = ('ENCX',),
                                 DX = 0., DY=0., DZ = 0., 
                                 DRX = 0., DRY=0., DRZ = 0., 
                                 ),
                             ),
            )

PEPSIRX=AFFE_CHAR_MECA(MODELE=MODX,
                      PRE_EPSI = (_F(GROUP_MA = 'G1X',
                                  EXX     = 1E-3,
                                  EYY     = 2E-3,
                                  EXY     = 3E-3,
                                  ),
                                  _F(GROUP_MA = 'G2X',
                                  EXX     = 1E-3*2,
                                  EYY     = 2E-3*2,
                                  EXY     = 3E-3*2,
                                  ),
                                  _F(GROUP_MA = 'G3X',
                                  EXX     = 1E-3*3,
                                  EYY     = 2E-3*3,
                                  EXY     = 3E-3*3,
                                  ),
                                  )
            )

PEPSIFX=AFFE_CHAR_MECA_F(MODELE=MODX,
                      PRE_EPSI = _F(GROUP_MA = 'COQ_X',
                                  EXX     = EXX_X,
                                  EYY     = EYY_X,
                                  EXY     = EXY_X,
                                  )

            )


BLOCY=AFFE_CHAR_MECA(MODELE=MODY,
                    DDL_IMPO=(_F(GROUP_NO = ('ENCY',),
                                 DX = 0., DY=0., DZ = 0., 
                                 DRX = 0., DRY=0., DRZ = 0., 
                                 ),
                             ),
            )

PEPSIRY=AFFE_CHAR_MECA(MODELE=MODY,
                      PRE_EPSI = (_F(GROUP_MA = 'G1Y',
                                  EXX     = 1E-3,
                                  EYY     = 2E-3,
                                  EXY     = 3E-3,
                                  ),
                                  _F(GROUP_MA = 'G2Y',
                                  EXX     = 1E-3*2,
                                  EYY     = 2E-3*2,
                                  EXY     = 3E-3*2,
                                  ),
                                  _F(GROUP_MA = 'G3Y',
                                  EXX     = 1E-3*3,
                                  EYY     = 2E-3*3,
                                  EXY     = 3E-3*3,
                                  ),
                                  )
            )

PEPSIFY=AFFE_CHAR_MECA_F(MODELE=MODY,
                      PRE_EPSI = _F(GROUP_MA = 'COQ_Y',
                                  EXX     = EXX_Y,
                                  EYY     = EYY_Y,
                                  EXY     = EXY_Y,
                                  )

            )
            
            
BLOCZ=AFFE_CHAR_MECA(MODELE=MODZ,
                    DDL_IMPO=(_F(GROUP_NO = ('ENCZ',),
                                 DX = 0., DY=0., DZ = 0., 
                                 DRX = 0., DRY=0., DRZ = 0., 
                                 ),
                             ),
            )

PEPSIRZ=AFFE_CHAR_MECA(MODELE=MODZ,
                      PRE_EPSI = (_F(GROUP_MA = 'G1Z',
                                  EXX     = 1E-3,
                                  EYY     = 2E-3,
                                  EXY     = 3E-3,
                                  ),
                                  _F(GROUP_MA = 'G2Z',
                                  EXX     = 1E-3*2,
                                  EYY     = 2E-3*2,
                                  EXY     = 3E-3*2,
                                  ),
                                  _F(GROUP_MA = 'G3Z',
                                  EXX     = 1E-3*3,
                                  EYY     = 2E-3*3,
                                  EXY     = 3E-3*3,
                                  ),
                                  )
            )

PEPSIFZ=AFFE_CHAR_MECA_F(MODELE=MODZ,
                      PRE_EPSI = _F(GROUP_MA = 'COQ_Z',
                                  EXX     = EXX_Z,
                                  EYY     = EYY_Z,
                                  EXY     = EXY_Z,
                                  )

            )
#-----------------------------------------------------------------------

ZLIST=DEFI_LIST_REEL(   DEBUT=0.,
             INTERVALLE=_F( JUSQU_A = 2.0,  NOMBRE = 2, )
           )
FF=DEFI_FONCTION(NOM_PARA='INST',
                     VALE=(0.0,    0.0,
                           2.,   2.),
                     )

#-----------------------------------------------------------------------
CALC_R_X=STAT_NON_LINE(MODELE=MODX,
                       CHAM_MATER=MATAF,
                       CARA_ELEM=CARX,
                       EXCIT=(_F(CHARGE = BLOCX,),
                              _F(CHARGE = PEPSIRX, FONC_MULT=FF),
                          ),
                    COMPORTEMENT=_F(RELATION = 'ELAS',),
                    INCREMENT=_F(LIST_INST = ZLIST,),
                   )

CALC_F_X=STAT_NON_LINE(MODELE=MODX,
                       CHAM_MATER=MATAF,
                       CARA_ELEM=CARX,
                       EXCIT=(_F(CHARGE = BLOCX,),
                              _F(CHARGE = PEPSIFX,),
                          ),
                    COMPORTEMENT=_F(RELATION = 'ELAS',),
                    INCREMENT=_F(LIST_INST = ZLIST,),
                   )



CALC_R_Y=STAT_NON_LINE(MODELE=MODY,
                       CHAM_MATER=MATAF,
                       CARA_ELEM=CARY,
                       EXCIT=(_F(CHARGE = BLOCY,),
                              _F(CHARGE = PEPSIRY, FONC_MULT=FF),
                          ),
                    COMPORTEMENT=_F(RELATION = 'ELAS',),
                    INCREMENT=_F(LIST_INST = ZLIST,),
                   )

CALC_F_Y=STAT_NON_LINE(MODELE=MODY,
                       CHAM_MATER=MATAF,
                       CARA_ELEM=CARY,
                       EXCIT=(_F(CHARGE = BLOCY,),
                              _F(CHARGE = PEPSIFY,),
                          ),
                    COMPORTEMENT=_F(RELATION = 'ELAS',),
                    INCREMENT=_F(LIST_INST = ZLIST,),
                   )


CALC_R_Z=STAT_NON_LINE(MODELE=MODZ,
                       CHAM_MATER=MATAF,
                       CARA_ELEM=CARZ,
                       EXCIT=(_F(CHARGE = BLOCZ,),
                              _F(CHARGE = PEPSIRZ, FONC_MULT=FF),
                          ),
                    COMPORTEMENT=_F(RELATION = 'ELAS',),
                    INCREMENT=_F(LIST_INST = ZLIST,),
                   )

CALC_F_Z=STAT_NON_LINE(MODELE=MODZ,
                       CHAM_MATER=MATAF,
                       CARA_ELEM=CARZ,
                       EXCIT=(_F(CHARGE = BLOCZ,),
                              _F(CHARGE = PEPSIFZ,),
                          ),
                    COMPORTEMENT=_F(RELATION = 'ELAS',),
                    INCREMENT=_F(LIST_INST = ZLIST,),
                   )

#-----------------------------------------------------------------------
TEST_RESU(RESU=(_F(GROUP_NO='FLX',
                   CRITERE='RELATIF',
                   INST = 1.0,
                   NOM_CMP='DX',
                   RESULTAT=CALC_R_X,
                   NOM_CHAM='DEPL',
                   VALE_CALC=0.00426667367479,
                   ),
                _F(GROUP_NO='FLX',
                   CRITERE='RELATIF',
                   INST = 1.0,
                   NOM_CMP='DY',
                   RESULTAT=CALC_R_X,
                   NOM_CHAM='DEPL',
                   VALE_CALC=0.000347860558941,
                   ),
                _F(GROUP_NO='FLX',
                   CRITERE='RELATIF',
                   INST = 2.0,
                   NOM_CMP='DX',
                   RESULTAT=CALC_R_X,
                   NOM_CHAM='DEPL',
                   VALE_CALC=0.00853334734958,
                   ),
                _F(GROUP_NO='FLX',
                   CRITERE='RELATIF',
                   INST = 2.0,
                   NOM_CMP='DY',
                   RESULTAT=CALC_R_X,
                   NOM_CHAM='DEPL',
                   VALE_CALC=0.000695721117883,
                   ),
               ),
          )

TEST_RESU(RESU=(_F(GROUP_NO='FLX',
                   CRITERE='RELATIF',
                   INST = 1.0,
                   REFERENCE='AUTRE_ASTER',
                   NOM_CMP='DX',
                   RESULTAT=CALC_F_X,
                   NOM_CHAM='DEPL',
                   VALE_CALC=0.00426667367479,
                   VALE_REFE=0.00426667367479,
                   ),
                _F(GROUP_NO='FLX',
                   CRITERE='RELATIF',
                   INST = 1.0,
                   REFERENCE='AUTRE_ASTER',
                   NOM_CMP='DY',
                   RESULTAT=CALC_F_X,
                   NOM_CHAM='DEPL',
                   VALE_CALC=0.000347860558941,
                   VALE_REFE=0.000347860558941,
                   ),
                _F(GROUP_NO='FLX',
                   CRITERE='RELATIF',
                   INST = 2.0,
                   REFERENCE='AUTRE_ASTER',
                   NOM_CMP='DX',
                   RESULTAT=CALC_F_X,
                   NOM_CHAM='DEPL',
                   VALE_CALC=0.00853334734958,
                   VALE_REFE=0.00853334734958,
                   ),
                _F(GROUP_NO='FLX',
                   CRITERE='RELATIF',
                   INST = 2.0,
                   REFERENCE='AUTRE_ASTER',
                   NOM_CMP='DY',
                   RESULTAT=CALC_F_X,
                   NOM_CHAM='DEPL',
                   VALE_CALC=0.000695721117883,
                   VALE_REFE=0.000695721117883,
                   ),
               ),
          )



TEST_RESU(RESU=(_F(GROUP_NO='FLY',
                   CRITERE='RELATIF',
                   INST = 1.0,
                   NOM_CMP='DX',
                   RESULTAT=CALC_R_Y,
                   NOM_CHAM='DEPL',
                   VALE_CALC=0.000341832038815,
                   ),
                _F(GROUP_NO='FLY',
                   CRITERE='RELATIF',
                   INST = 1.0,
                   NOM_CMP='DY',
                   RESULTAT=CALC_R_Y,
                   NOM_CHAM='DEPL',
                   VALE_CALC=0.00426668139186,
                   ),
               ),
          )

TEST_RESU(RESU=(_F(GROUP_NO='FLY',
                   CRITERE='RELATIF',
                   INST = 1.0,
                   REFERENCE='AUTRE_ASTER',
                   NOM_CMP='DX',
                   RESULTAT=CALC_F_Y,
                   NOM_CHAM='DEPL',
                   VALE_CALC=0.000341832038815,
                   VALE_REFE=0.000341832038815,
                   ),
                _F(GROUP_NO='FLY',
                   CRITERE='RELATIF',
                   INST = 1.0,
                   REFERENCE='AUTRE_ASTER',
                   NOM_CMP='DY',
                   RESULTAT=CALC_F_Y,
                   NOM_CHAM='DEPL',
                   VALE_CALC=0.00426668139186,
                   VALE_REFE=0.00426668139186,
                   ),
               ),
          )

TEST_RESU(RESU=(_F(GROUP_NO='FLZ',
                   CRITERE='RELATIF',
                   INST = 1.0,
                   NOM_CMP='DY',
                   RESULTAT=CALC_R_Z,
                   NOM_CHAM='DEPL',
                   VALE_CALC=0.000347860558942,
                   ),
                _F(GROUP_NO='FLZ',
                   CRITERE='RELATIF',
                   INST = 1.0,
                   NOM_CMP='DZ',
                   RESULTAT=CALC_R_Z,
                   NOM_CHAM='DEPL',
                   VALE_CALC=0.00426667367479,
                   ),
               ),
          )

TEST_RESU(RESU=(_F(GROUP_NO='FLZ',
                   CRITERE='RELATIF',
                   INST = 1.0,
                   REFERENCE='AUTRE_ASTER',
                   NOM_CMP='DY',
                   RESULTAT=CALC_F_Z,
                   NOM_CHAM='DEPL',
                   VALE_CALC=0.000347860558942,
                   VALE_REFE=0.000347860558942,
                   ),
                _F(GROUP_NO='FLZ',
                   CRITERE='RELATIF',
                   INST = 1.0,
                   REFERENCE='AUTRE_ASTER',
                   NOM_CMP='DZ',
                   RESULTAT=CALC_F_Z,
                   NOM_CHAM='DEPL',
                   VALE_CALC=0.00426667367479,
                   VALE_REFE=0.00426667367479,
                   ),
               ),
          )


FIN()
#
