# MODIF  DATE 09/11/2009   AUTEUR GREFFET N.GREFFET 
# TITRE LIRE_FONCTION ET SPECTRE D'OSCILLATEUR
# zzzz102a.para = tps_job 60 mem_job 128Mo ncpus 1 liste_test S
#            CONFIGURATION MANAGEMENT OF EDF VERSION
# ======================================================================
# COPYRIGHT (C) 1991 - 2001  EDF R&D                  WWW.CODE-ASTER.ORG
# THIS PROGRAM IS FREE SOFTWARE; YOU CAN REDISTRIBUTE IT AND/OR MODIFY
# IT UNDER THE TERMS OF THE GNU GENERAL PUBLIC LICENSE AS PUBLISHED BY
# THE FREE SOFTWARE FOUNDATION; EITHER VERSION 2 OF THE LICENSE, OR
# (AT YOUR OPTION) ANY LATER VERSION.
#
# THIS PROGRAM IS DISTRIBUTED IN THE HOPE THAT IT WILL BE USEFUL, BUT
# WITHOUT ANY WARRANTY; WITHOUT EVEN THE IMPLIED WARRANTY OF
# MERCHANTABILITY OR FITNESS FOR A PARTICULAR PURPOSE. SEE THE GNU
# GENERAL PUBLIC LICENSE FOR MORE DETAILS.
#
# YOU SHOULD HAVE RECEIVED A COPY OF THE GNU GENERAL PUBLIC LICENSE
# ALONG WITH THIS PROGRAM; IF NOT, WRITE TO EDF R&D CODE_ASTER,
#    1 AVENUE DU GENERAL DE GAULLE, 92141 CLAMART CEDEX, FRANCE.
# ======================================================================


DEBUT(CODE=_F(NOM='ZZZZ102A', NIV_PUB_WEB='INTERNET'), DEBUG=_F(SDVERI='OUI'))

#=======================================================================
#
#          VALIDATION DE SPEC_OSCI DE L'OPERATEUR CALC_FONCTION
#
#=======================================================================

LBEWA=LIRE_FONCTION(     UNITE=19,
              NOM_PARA='INST',    NOM_RESU='DX',
             TITRE='ACCELEROGRAMME SEPTEN NON CENTRE',
             INTERPOL='LIN',
               PROL_DROITE='CONSTANT',    PROL_GAUCHE='EXCLU' )

TEST_FONCTION(
         VALEUR=_F(  FONCTION = LBEWA,         NOM_PARA = 'INST',
                  VALE_PARA = 7.93500E+00,   VALE_REFE = -6.38000E-01),ATTRIBUT=(
       _F(  FONCTION = LBEWA,         ATTR = 'NOM_PARA',
                                           ATTR_REFE = 'INST'),
       _F(  FONCTION = LBEWA,         ATTR = 'NOM_RESU',
                                           ATTR_REFE = 'DX'),
       _F(  FONCTION = LBEWA,         ATTR = 'PROL_DROITE',
                                           ATTR_REFE = 'CONSTANT'),
       _F(  FONCTION = LBEWA,         ATTR = 'PROL_GAUCHE',
                                           ATTR_REFE = 'EXCLU'),
       _F(  FONCTION = LBEWA,         ATTR = 'INTERPOL',
                                           ATTR_REFE = 'LIN LIN '))
                 )

MAXLBEWA=INFO_FONCTION(    MAX=_F(  FONCTION = LBEWA)  )

TEST_TABLE(  TABLE=MAXLBEWA,
             FILTRE=( _F(  NOM_PARA = 'FONCTION',
                           VALE_K = 'LBEWA'),
                      _F(  NOM_PARA = 'INST',
                           VALE = 7.93500E+00),
                      _F(  NOM_PARA = 'TYPE',
                           VALE_K = 'MINI')),
             NOM_PARA='DX',
             VALE=-6.38000E-01              )

G=9.81
UNSURG=1/G
FMAX = 100.

LFREQ1 = DEFI_LIST_REEL(DEBUT=0.1,INTERVALLE=(_F(JUSQU_A=FMAX,PAS=0.05,),),)


SLBEWA=CALC_FONCTION(
                 SPEC_OSCI=_F(  FONCTION = LBEWA,
                            NATURE = 'ACCE', AMOR_REDUIT = ( 0.01, ),
                            NORME = UNSURG,
                             LIST_FREQ = LFREQ1,)  )

MSLBEWA=INFO_FONCTION(    MAX=_F(  FONCTION = SLBEWA)  )

TEST_TABLE(   TABLE=MSLBEWA,
              FILTRE=( _F(  NOM_PARA = 'FONCTION',
                            VALE_K = 'SLBEWA'),
                       _F(  NOM_PARA = 'AMOR',
                            VALE = 1.00000E-02),
                       _F(  NOM_PARA = 'FREQ',
                            VALE = 3.70000E+00),
                       _F(  NOM_PARA = 'TYPE',
                            VALE_K = 'MAXI')),
              NOM_PARA='ACCE',
              VALE=3.56676E+01               )

VAL=6.38000E-01 * G
TEST_FONCTION(
         VALEUR=_F(  FONCTION = SLBEWA,        NOM_PARA = ('AMOR', 'FREQ',),
                  VALE_PARA = ( 0.01, FMAX, ),
                  VALE_REFE = VAL, PRECISION = 1.E-3),ATTRIBUT=(
       _F(  FONCTION = SLBEWA,         ATTR = 'NOM_PARA',
                  PARA = 0.01,                ATTR_REFE = 'AMOR'),
       _F(  FONCTION = SLBEWA,         ATTR = 'NOM_RESU',
                  PARA = 0.01,                ATTR_REFE = 'ACCE'),
       _F(  FONCTION = SLBEWA,         ATTR = 'PROL_DROITE',
                  PARA = 0.01,                ATTR_REFE = 'EXCLU'),
       _F(  FONCTION = SLBEWA,         ATTR = 'PROL_DROITE_FONC',
                  PARA = 0.01,                ATTR_REFE = 'CONSTANT'),
       _F(  FONCTION = SLBEWA,         ATTR = 'PROL_GAUCHE',
                  PARA = 0.01,                ATTR_REFE = 'EXCLU'),
       _F(  FONCTION = SLBEWA,         ATTR = 'PROL_GAUCHE_FONC',
                  PARA = 0.01,                ATTR_REFE = 'EXCLU'),
       _F(  FONCTION = SLBEWA,         ATTR = 'INTERPOL',
                                            ATTR_REFE = 'LIN LOG '))
                 )

SLBEWD=CALC_FONCTION(
               SPEC_OSCI=_F(  FONCTION = LBEWA,
                            NATURE = 'DEPL', AMOR_REDUIT = ( 0.01, ),
                            NORME = 1.,
                            LIST_FREQ = LFREQ1,)  )

OMEGA2=4. * pi * pi * FMAX * FMAX
VAL= 6.38000E-01 / OMEGA2

TEST_FONCTION(
         VALEUR=_F(  FONCTION = SLBEWD,        NOM_PARA = ('AMOR', 'FREQ',),
                  VALE_PARA = ( 0.01, FMAX, ),
                  VALE_REFE = VAL,
                  PRECISION = 1.E-3),
       ATTRIBUT=_F(  FONCTION = SLBEWD,         ATTR = 'NOM_RESU',
                  PARA = 0.01,                ATTR_REFE = 'DEPL')
                )

# --------------------------------------------------------------


LBEWS=LIRE_FONCTION(     UNITE=18,
              NOM_PARA='INST',    NOM_RESU='ACCE_SOL',
             TITRE='ACCELEROGRAMME DOSEISME CENTRE',
             INTERPOL='NON',
               PROL_DROITE='EXCLU',    PROL_GAUCHE='EXCLU'  )

TEST_FONCTION(
         VALEUR=_F(  FONCTION = LBEWS,         NOM_PARA = 'INST',
                  VALE_PARA = 3.10000E+00,   VALE_REFE = 1.00000E+00),ATTRIBUT=(
       _F(  FONCTION = LBEWS,         ATTR = 'NOM_PARA',
                                           ATTR_REFE = 'INST'),
       _F(  FONCTION = LBEWS,         ATTR = 'NOM_RESU',
                                           ATTR_REFE = 'ACCE_SOL'),
       _F(  FONCTION = LBEWS,         ATTR = 'PROL_DROITE',
                                           ATTR_REFE = 'EXCLU'),
       _F(  FONCTION = LBEWS,         ATTR = 'PROL_GAUCHE',
                                           ATTR_REFE = 'EXCLU'),
       _F(  FONCTION = LBEWS,         ATTR = 'INTERPOL',
                                           ATTR_REFE = 'NON NON '))
                 )

MAXLBEWS=INFO_FONCTION(   MAX=_F(  FONCTION = LBEWS)  )

TEST_TABLE(   TABLE=MAXLBEWS,
              FILTRE=(  _F(  NOM_PARA = 'FONCTION',
                             VALE_K = 'LBEWS'),
                        _F(  NOM_PARA = 'INST',
                             VALE = 3.10000E+00),
                        _F(  NOM_PARA = 'TYPE',
                             VALE_K = 'MAXI')),
              NOM_PARA='ACCE_SOL',
              VALE=1.00000E+00               )

SLBEWS=CALC_FONCTION(
              SPEC_OSCI=_F(  FONCTION = LBEWS,
                            NATURE = 'ACCE', AMOR_REDUIT = ( 0.01, ),
                            NORME = 1.,
                            LIST_FREQ = LFREQ1,)  )


# ---------------------------------------------------------------
#
#   Visualisation des spectres :
#   utile pour tester le contenu frequentiel et dimensionner en consequence
#   la liste de frequence LIST_FREQ pour le calcul SPEC_OSCI.
#
#IMPR_FONCTION(FORMAT='XMGRACE', UNITE=52, COURBE= _F(FONCTION=SLBEWA))
#IMPR_FONCTION(FORMAT='XMGRACE', UNITE=53, COURBE= _F(FONCTION=SLBEWD))
#IMPR_FONCTION(FORMAT='XMGRACE', UNITE=54, COURBE= _F(FONCTION=SLBEWS))
#
# ---------------------------------------------------------------

TEST_FONCTION(
         VALEUR=_F(  FONCTION = SLBEWS,        NOM_PARA = ('AMOR', 'FREQ',),
                  VALE_PARA = ( 0.01, FMAX, ),
                  VALE_REFE = 1.00000E+00,  PRECISION = 1.E-3),ATTRIBUT=(
       _F(  FONCTION = SLBEWS,         ATTR = 'NOM_PARA',
                  PARA = 0.01,                ATTR_REFE = 'AMOR'),
       _F(  FONCTION = SLBEWS,         ATTR = 'NOM_RESU',
                  PARA = 0.01,                ATTR_REFE = 'ACCE'),
       _F(  FONCTION = SLBEWS,         ATTR = 'PROL_DROITE',
                  PARA = 0.01,                ATTR_REFE = 'EXCLU'),
       _F(  FONCTION = SLBEWS,         ATTR = 'PROL_DROITE_FONC',
                  PARA = 0.01,                ATTR_REFE = 'CONSTANT'),
       _F(  FONCTION = SLBEWS,         ATTR = 'PROL_GAUCHE',
                  PARA = 0.01,                ATTR_REFE = 'EXCLU'),
       _F(  FONCTION = SLBEWS,         ATTR = 'PROL_GAUCHE_FONC',
                  PARA = 0.01,                ATTR_REFE = 'EXCLU'),
       _F(  FONCTION = SLBEWS,         ATTR = 'INTERPOL',
                                            ATTR_REFE = 'LIN LOG '))
                 )

#
# ---------------------------------------------------------------
#
#
LBEWA2=LIRE_FONCTION(          UNITE=19,
                             NOM_PARA='INST',
                             NOM_RESU='DX',
                                TITRE='ACCELEROGRAMME',
                             INTERPOL='LIN',
                           PROL_DROITE='EXCLU',
                          PROL_GAUCHE='CONSTANT'
#                        PROL_DROITE  : 'CONSTANT'
#                        PROL_GAUCHE : 'EXCLU'
                     )

SPECT1=CALC_FONCTION(    SPEC_OSCI=_F(  FONCTION = LBEWA,
                                        NATURE = 'DEPL',
                                 AMOR_REDUIT = (0.01, 0.03, 0.05,),
                                        NORME = 1.,
                                         LIST_FREQ = LFREQ1,)
                        )

#
SPECT2=CALC_FONCTION(    SPEC_OSCI=_F(  FONCTION = LBEWA,
                                        NATURE = 'DEPL',
                                 AMOR_REDUIT = (0.01, 0.05,),
                                        NORME = 1.,
                                         LIST_FREQ = LFREQ1,)
                        )

#
SPECT3=CALC_FONCTION(    SPEC_OSCI=_F(  FONCTION = LBEWA2,
                                        NATURE = 'DEPL',
                                 AMOR_REDUIT = (0.01, 0.05,),
                                        NORME = 1.,
                                         LIST_FREQ = LFREQ1,)
                        )

#
A_0_1=DEFI_FONCTION(      NOM_PARA='FREQ',
                             INTERPOL='LOG',
                          PROL_GAUCHE='CONSTANT',
                                 VALE=(
  2.00000E-01,  9.23433E-02,
  2.50000E-01,  7.55943E-02,
  3.00000E-01,  6.63399E-02,
  3.50000E-01,  6.99019E-02,
  4.00000E-01,  7.66195E-02,
  4.50000E-01,  6.11708E-02,
  5.00000E-01,  6.23592E-02,
  5.50000E-01,  7.30025E-02,
  6.00000E-01,  6.99292E-02,
  6.50000E-01,  5.01833E-02,
  7.00000E-01,  5.00224E-02,
  7.50000E-01,  4.62290E-02,
  8.00000E-01,  6.64918E-02,
  8.50000E-01,  6.23064E-02,
  9.00000E-01,  4.78364E-02,
  9.50000E-01,  4.76343E-02,
  1.00000E+00,  6.38801E-02,
  1.05000E+00,  4.35820E-02,
  1.10000E+00,  4.37474E-02,
  1.15000E+00,  3.92227E-02,
# ... 130 like lines cut
                                   ),
                             TITRE='AMORTISSEMENT 0.01 # '
                      )

#
A_0_5=DEFI_FONCTION(      NOM_PARA='FREQ',
                          PROL_GAUCHE='CONSTANT',
                             INTERPOL='LOG',
                                 VALE=(
  2.00000E-01,  7.69222E-02,
  2.50000E-01,  6.45419E-02,
  3.00000E-01,  5.85037E-02,
  3.50000E-01,  5.92914E-02,
  4.00000E-01,  5.57138E-02,
  4.50000E-01,  4.82136E-02,
  5.00000E-01,  4.88605E-02,
  5.50000E-01,  4.84210E-02,
  6.00000E-01,  4.54876E-02,
  6.50000E-01,  4.21859E-02,
  7.00000E-01,  4.02043E-02,
  7.50000E-01,  3.34273E-02,
  8.00000E-01,  3.98645E-02,
  8.50000E-01,  3.87777E-02,
  9.00000E-01,  3.14455E-02,
  9.50000E-01,  3.12294E-02,
  1.00000E+00,  3.13424E-02,
  1.05000E+00,  2.84000E-02,
  1.10000E+00,  2.90299E-02,
  1.15000E+00,  2.75136E-02,
# ... 130 like lines cut
                                   ),
                             TITRE='AMORTISSEMENT 0.05 # '
                      )

SPECT_X=DEFI_NAPPE(   NOM_PARA='AMOR',
                        INTERPOL=( 'LIN',  'LOG', ),
                            PARA=(0.01,
                                  0.05,
                                 ),
                        FONCTION=(A_0_1,
                                  A_0_5,
                                 )
                   )

#
#
TEST_FONCTION(VALEUR=(  _F( FONCTION = SPECT2,
                         NOM_PARA = ( 'FREQ',        'AMOR', ),
                         VALE_PARA = ( 2.00000E-01,   0.03,   ),
                         VALE_REFE = 8.4280E-2,
                         PRECISION = 1.E-4),
                        _F( FONCTION = SPECT2,
                         NOM_PARA = ( 'FREQ',        'AMOR', ),
                         VALE_PARA = ( 1.00000E+00,   0.03,   ),
                         VALE_REFE = 4.4745E-02,
                         PRECISION = 1.E-4),
                        _F( FONCTION = SPECT2,
                         NOM_PARA = ( 'FREQ',        'AMOR', ),
                         VALE_PARA = ( 5.00000E+00,   0.03,   ),
                         VALE_REFE = 1.8309E-03,
                         PRECISION = 1.E-4),
                        _F( FONCTION = SPECT2,
                         NOM_PARA = ( 'FREQ',        'AMOR', ),
                         VALE_PARA = ( 1.00000E+01,   0.03,   ),
                         VALE_REFE = 2.7425E-04,
                         PRECISION = 1.E-4),
                        _F( FONCTION = SPECT2,
                         NOM_PARA = ( 'FREQ',        'AMOR', ),
                         VALE_PARA = ( 1.50000E+01,   0.03,   ),
                         VALE_REFE = 8.6072E-05,
                         PRECISION = 1.E-4),
                        _F( FONCTION = SPECT2,
                         NOM_PARA = ( 'FREQ',        'AMOR', ),
                         VALE_PARA = ( 2.00000E+01,   0.03,   ),
                         VALE_REFE = 4.3102E-05,
                         PRECISION = 1.E-4),
                        _F( FONCTION = SPECT2,
                         NOM_PARA = ( 'FREQ',        'AMOR', ),
                         VALE_PARA = ( 2.50000E+01,   0.03,   ),
                         VALE_REFE = 2.6867E-05,
                         PRECISION = 1.E-4),
                        _F( FONCTION = SPECT2,
                         NOM_PARA = ( 'FREQ',        'AMOR', ),
                         VALE_PARA = ( 2.95000E+01,   0.03,   ),
                         VALE_REFE = 1.9343E-05,
                         PRECISION = 1.E-4),
                        _F( FONCTION = SPECT2,
                         NOM_PARA = ( 'FREQ',        'AMOR', ),
                         VALE_PARA = ( 3.55000E+01,   0.03,   ),
                         VALE_REFE = 1.3350E-05,
                         PRECISION = 1.E-4))
              )

#
MA=LIRE_MAILLAGE(  )

#
MO=AFFE_MODELE(   MAILLAGE=MA,AFFE=(
                        _F( TOUT = 'OUI',
                              PHENOMENE = 'MECANIQUE',
                              MODELISATION = 'DIS_T'),
                        _F( NOEUD = ('P2',),
                              PHENOMENE = 'MECANIQUE',
                              MODELISATION = 'DIS_T'))
               )

#
#
# DEFINITION DU MATERIAU
#
MAT=DEFI_MATERIAU(    ELAS=_F( E = 2.068E11,
                                    NU = 0.3,
                                    RHO = 7780.)
                          )

#
# AFFECTATION DU MATERIAU
#
#
CHMAT=AFFE_MATERIAU(    MAILLAGE=MA,
                                  AFFE=_F( TOUT = 'OUI',
                                        MATER = MAT)
                          )

#
CHARGE=AFFE_CHAR_MECA(   MODELE=MO,DDL_IMPO=(
                            _F( TOUT = 'OUI',
                                      DZ = 0.0,
                                      DY = 0.0),
                            _F( NOEUD = ('P1',),
                                      DX = 0.0))
                        )

#
# 0.2HZ
#
CARELE02=AFFE_CARA_ELEM(     MODELE=MO,DISCRET=(
                              _F( NOEUD = ('P2',),
                                       CARA = 'M_T_D_N',
                                       VALE = (6.332573E14,)),
                              _F( MAILLE = ('M1',),
                                       CARA = 'K_T_D_L',
                                       VALE = (1.E15, 0., 0.,)))
                          )

#
# 1HZ
#
CARELE1=AFFE_CARA_ELEM(     MODELE=MO,DISCRET=(
                             _F( NOEUD = ('P2',),
                                      CARA = 'M_T_D_N',
                                      VALE = (2.533029E13,)),
                             _F( MAILLE = ('M1',),
                                      CARA = 'K_T_D_L',
                                      VALE = (1.E15, 0., 0.,)))
                         )

#
# 5HZ
#
CARELE5=AFFE_CARA_ELEM(     MODELE=MO,DISCRET=(
                             _F( NOEUD = ('P2',),
                                      CARA = 'M_T_D_N',
                                      VALE = (1.013211E12,)),
                             _F( MAILLE = ('M1',),
                                      CARA = 'K_T_D_L',
                                      VALE = (1.E15, 0., 0.,)))
                         )

#
# 10HZ
#
CARELE10=AFFE_CARA_ELEM(     MODELE=MO,DISCRET=(
                              _F( NOEUD = ('P2',),
                                       CARA = 'M_T_D_N',
                                       VALE = (2.533029E11,)),
                              _F( MAILLE = ('M1',),
                                       CARA = 'K_T_D_L',
                                       VALE = (1.E15, 0., 0.,)))
                          )

#
# 15HZ
#
CARELE15=AFFE_CARA_ELEM(     MODELE=MO,DISCRET=(
                              _F( NOEUD = ('P2',),
                                       CARA = 'M_T_D_N',
                                       VALE = (1.125790E11,)),
                              _F( MAILLE = ('M1',),
                                       CARA = 'K_T_D_L',
                                       VALE = (1.E15, 0., 0.,)))
                          )

#
# 20HZ
#
CARELE20=AFFE_CARA_ELEM(     MODELE=MO,DISCRET=(
                              _F( NOEUD = ('P2',),
                                       CARA = 'M_T_D_N',
                                       VALE = (6.332573E10,)),
                              _F( MAILLE = ('M1',),
                                       CARA = 'K_T_D_L',
                                       VALE = (1.E15, 0., 0.,)))
                          )

#
# 25HZ
#
CARELE25=AFFE_CARA_ELEM(     MODELE=MO,DISCRET=(
                              _F( NOEUD = ('P2',),
                                       CARA = 'M_T_D_N',
                                       VALE = (4.052847E10,)),
                              _F( MAILLE = ('M1',),
                                       CARA = 'K_T_D_L',
                                       VALE = (1.E15, 0., 0.,)))
                          )

#
# 29.5HZ
#
CARELE29=AFFE_CARA_ELEM(     MODELE=MO,DISCRET=(
                              _F( NOEUD = ('P2',),
                                       CARA = 'M_T_D_N',
                                       VALE = (2.910691E10,)),
                              _F( MAILLE = ('M1',),
                                       CARA = 'K_T_D_L',
                                       VALE = (1.E15, 0., 0.,)))
                          )

#
# 35.5HZ
#
CARELE35=AFFE_CARA_ELEM(     MODELE=MO,DISCRET=(
                              _F( NOEUD = ('P2',),
                                       CARA = 'M_T_D_N',
                                       VALE = (2.009942E10,)),
                              _F( MAILLE = ('M1',),
                                       CARA = 'K_T_D_L',
                                       VALE = (1.E15, 0., 0.,)))
                          )

#
# 0.2HZ
#
MELR02=CALC_MATR_ELEM(       MODELE=MO,
                                CHARGE=CHARGE,
                                OPTION='RIGI_MECA',
                             CARA_ELEM=CARELE02
                         )

#
MELM02=CALC_MATR_ELEM(       MODELE=MO,
                               CHARGE=CHARGE,
                               OPTION='MASS_MECA',
                            CARA_ELEM=CARELE02
                        )

#
# 1HZ
#
MELR1=CALC_MATR_ELEM(       MODELE=MO,
                               CHARGE=CHARGE,
                               OPTION='RIGI_MECA',
                            CARA_ELEM=CARELE1
                        )

#
MELM1=CALC_MATR_ELEM(       MODELE=MO,
                              CHARGE=CHARGE,
                              OPTION='MASS_MECA',
                           CARA_ELEM=CARELE1
                       )

#
# 5HZ
#
MELR5=CALC_MATR_ELEM(       MODELE=MO,
                               CHARGE=CHARGE,
                               OPTION='RIGI_MECA',
                            CARA_ELEM=CARELE5
                        )

#
MELM5=CALC_MATR_ELEM(       MODELE=MO,
                              CHARGE=CHARGE,
                              OPTION='MASS_MECA',
                           CARA_ELEM=CARELE5
                       )

#
# 10HZ
#
MELR10=CALC_MATR_ELEM(       MODELE=MO,
                               CHARGE=CHARGE,
                               OPTION='RIGI_MECA',
                            CARA_ELEM=CARELE10
                        )

#
MELM10=CALC_MATR_ELEM(       MODELE=MO,
                               CHARGE=CHARGE,
                               OPTION='MASS_MECA',
                            CARA_ELEM=CARELE10
                        )

#
# 15HZ
#
MELR15=CALC_MATR_ELEM(       MODELE=MO,
                               CHARGE=CHARGE,
                               OPTION='RIGI_MECA',
                            CARA_ELEM=CARELE15
                        )

#
MELM15=CALC_MATR_ELEM(       MODELE=MO,
                               CHARGE=CHARGE,
                               OPTION='MASS_MECA',
                            CARA_ELEM=CARELE15
                        )

#
# 20HZ
#
MELR20=CALC_MATR_ELEM(       MODELE=MO,
                               CHARGE=CHARGE,
                               OPTION='RIGI_MECA',
                            CARA_ELEM=CARELE20
                        )

#
MELM20=CALC_MATR_ELEM(       MODELE=MO,
                               CHARGE=CHARGE,
                               OPTION='MASS_MECA',
                            CARA_ELEM=CARELE20
                        )

#
# 25HZ
#
MELR25=CALC_MATR_ELEM(       MODELE=MO,
                               CHARGE=CHARGE,
                               OPTION='RIGI_MECA',
                            CARA_ELEM=CARELE25
                        )

#
MELM25=CALC_MATR_ELEM(       MODELE=MO,
                               CHARGE=CHARGE,
                               OPTION='MASS_MECA',
                            CARA_ELEM=CARELE25
                        )

#
# 29HZ
#
MELR29=CALC_MATR_ELEM(       MODELE=MO,
                               CHARGE=CHARGE,
                               OPTION='RIGI_MECA',
                            CARA_ELEM=CARELE29
                        )

#
MELM29=CALC_MATR_ELEM(       MODELE=MO,
                               CHARGE=CHARGE,
                               OPTION='MASS_MECA',
                            CARA_ELEM=CARELE29
                        )

#
# 35HZ
#
MELR35=CALC_MATR_ELEM(       MODELE=MO,
                               CHARGE=CHARGE,
                               OPTION='RIGI_MECA',
                            CARA_ELEM=CARELE35
                        )

#
MELM35=CALC_MATR_ELEM(       MODELE=MO,
                               CHARGE=CHARGE,
                               OPTION='MASS_MECA',
                            CARA_ELEM=CARELE35
                        )

#
# 0.2HZ
#
NUM02=NUME_DDL(  MATR_RIGI=MELR02 )

#
# 1HZ
#
NUM1=NUME_DDL(  MATR_RIGI=MELR1  )

#
# 5HZ
#
NUM5=NUME_DDL(  MATR_RIGI=MELR5  )

#
# 10HZ
#
NUM10=NUME_DDL(  MATR_RIGI=MELR10 )

#
# 15HZ
#
NUM15=NUME_DDL(  MATR_RIGI=MELR15 )

#
# 20HZ
#
NUM20=NUME_DDL(  MATR_RIGI=MELR20 )

#
# 25HZ
#
NUM25=NUME_DDL(  MATR_RIGI=MELR25 )

#
# 29.5HZ
#
NUM29=NUME_DDL(  MATR_RIGI=MELR29 )

#
# 35.5HZ
#
NUM35=NUME_DDL(  MATR_RIGI=MELR35 )

#
# 0.2HZ
#
MATASR02=ASSE_MATRICE(    MATR_ELEM=MELR02,
                             NUME_DDL=NUM02
                        )

#
MATASM02=ASSE_MATRICE(    MATR_ELEM=MELM02,
                             NUME_DDL=NUM02
                        )

#
# 1HZ
#
MATASSR1=ASSE_MATRICE(    MATR_ELEM=MELR1,
                             NUME_DDL=NUM1
                        )

#
MATASSM1=ASSE_MATRICE(    MATR_ELEM=MELM1,
                             NUME_DDL=NUM1
                        )

#
# 5HZ
#
MATASSR5=ASSE_MATRICE(    MATR_ELEM=MELR5,
                             NUME_DDL=NUM5
                        )

#
MATASSM5=ASSE_MATRICE(    MATR_ELEM=MELM5,
                             NUME_DDL=NUM5
                        )

#
# 10HZ
#
MATASR10=ASSE_MATRICE(    MATR_ELEM=MELR10,
                             NUME_DDL=NUM10
                        )

#
MATASM10=ASSE_MATRICE(    MATR_ELEM=MELM10,
                             NUME_DDL=NUM10
                        )

#
# 15HZ
#
MATASR15=ASSE_MATRICE(    MATR_ELEM=MELR15,
                             NUME_DDL=NUM15
                        )

#
MATASM15=ASSE_MATRICE(    MATR_ELEM=MELM15,
                             NUME_DDL=NUM15
                        )

#
# 20HZ
#
MATASR20=ASSE_MATRICE(    MATR_ELEM=MELR20,
                             NUME_DDL=NUM20
                        )

#
MATASM20=ASSE_MATRICE(    MATR_ELEM=MELM20,
                             NUME_DDL=NUM20
                        )

#
# 25HZ
#
MATASR25=ASSE_MATRICE(    MATR_ELEM=MELR25,
                             NUME_DDL=NUM25
                        )

#
MATASM25=ASSE_MATRICE(    MATR_ELEM=MELM25,
                             NUME_DDL=NUM25
                        )

#
# 29.5HZ
#
MATASR29=ASSE_MATRICE(    MATR_ELEM=MELR29,
                             NUME_DDL=NUM29
                        )

#
MATASM29=ASSE_MATRICE(    MATR_ELEM=MELM29,
                             NUME_DDL=NUM29
                        )

#
# 35.5HZ
#
MATASR35=ASSE_MATRICE(    MATR_ELEM=MELR35,
                             NUME_DDL=NUM35
                        )

#
MATASM35=ASSE_MATRICE(    MATR_ELEM=MELM35,
                             NUME_DDL=NUM35
                        )

#
# 0.2HZ
#
MODE02=MODE_ITER_SIMULT(       MATR_A=MATASR02,
                                   MATR_B=MATASM02,
                                CALC_FREQ=_F( NMAX_FREQ = 1,
                                           OPTION = 'PLUS_PETITE')
                            )

#
# 1HZ
#
MODE1=MODE_ITER_SIMULT(       MATR_A=MATASSR1,
                                   MATR_B=MATASSM1,
                                CALC_FREQ=_F( NMAX_FREQ = 1,
                                           OPTION = 'PLUS_PETITE')
                            )

#
# 5HZ
#
MODE5=MODE_ITER_SIMULT(       MATR_A=MATASSR5,
                                   MATR_B=MATASSM5,
                                CALC_FREQ=_F( NMAX_FREQ = 1,
                                           OPTION = 'PLUS_PETITE')
                            )

#
# 10HZ
#
MODE10=MODE_ITER_SIMULT(       MATR_A=MATASR10,
                                   MATR_B=MATASM10,
                                CALC_FREQ=_F( NMAX_FREQ = 1,
                                           OPTION = 'PLUS_PETITE')
                            )

#
# 15HZ
#
MODE15=MODE_ITER_SIMULT(       MATR_A=MATASR15,
                                   MATR_B=MATASM15,
                                CALC_FREQ=_F( NMAX_FREQ = 1,
                                           OPTION = 'PLUS_PETITE')
                            )

#
# 20HZ
#
MODE20=MODE_ITER_SIMULT(       MATR_A=MATASR20,
                                   MATR_B=MATASM20,
                                CALC_FREQ=_F( NMAX_FREQ = 1,
                                           OPTION = 'PLUS_PETITE')
                            )

#
# 25HZ
#
MODE25=MODE_ITER_SIMULT(       MATR_A=MATASR25,
                                   MATR_B=MATASM25,
                                CALC_FREQ=_F( NMAX_FREQ = 1,
                                           OPTION = 'PLUS_PETITE')
                            )

#
# 29.5HZ
#
MODE29=MODE_ITER_SIMULT(       MATR_A=MATASR29,
                                   MATR_B=MATASM29,
                                CALC_FREQ=_F( NMAX_FREQ = 1,
                                           OPTION = 'PLUS_PETITE')
                            )

#
# 35.5HZ
#
MODE35=MODE_ITER_SIMULT(       MATR_A=MATASR35,
                                   MATR_B=MATASM35,
                                CALC_FREQ=_F( NMAX_FREQ = 1,
                                           OPTION = 'PLUS_PETITE')
                            )

#
# 0.2HZ
#
TABMAS02=POST_ELEM(        MODELE=MO,
                         CHAM_MATER=CHMAT,
                          CARA_ELEM=CARELE02,
                          MASS_INER=_F(  TOUT = 'OUI')
                     )

#
# 1HZ
#
TABMAS1=POST_ELEM(        MODELE=MO,
                         CHAM_MATER=CHMAT,
                          CARA_ELEM=CARELE1,
                          MASS_INER=_F(  TOUT = 'OUI')
                     )

#
# 5HZ
#
TABMAS5=POST_ELEM(        MODELE=MO,
                         CHAM_MATER=CHMAT,
                          CARA_ELEM=CARELE5,
                          MASS_INER=_F(  TOUT = 'OUI')
                     )

#
# 10HZ
#
TABMAS10=POST_ELEM(        MODELE=MO,
                          CHAM_MATER=CHMAT,
                           CARA_ELEM=CARELE10,
                           MASS_INER=_F(  TOUT = 'OUI')
                     )

#
# 15HZ
#
TABMAS15=POST_ELEM(        MODELE=MO,
                          CHAM_MATER=CHMAT,
                           CARA_ELEM=CARELE15,
                           MASS_INER=_F(  TOUT = 'OUI')
                     )

#
# 20HZ
#
TABMAS20=POST_ELEM(        MODELE=MO,
                          CHAM_MATER=CHMAT,
                           CARA_ELEM=CARELE20,
                           MASS_INER=_F(  TOUT = 'OUI')
                     )

#
# 25HZ
#
TABMAS25=POST_ELEM(        MODELE=MO,
                          CHAM_MATER=CHMAT,
                           CARA_ELEM=CARELE25,
                           MASS_INER=_F(  TOUT = 'OUI')
                     )

#
# 29.5HZ
#
TABMAS29=POST_ELEM(        MODELE=MO,
                          CHAM_MATER=CHMAT,
                           CARA_ELEM=CARELE29,
                           MASS_INER=_F(  TOUT = 'OUI')
                     )

#
# 35.5HZ
#
TABMAS35=POST_ELEM(        MODELE=MO,
                          CHAM_MATER=CHMAT,
                           CARA_ELEM=CARELE35,
                           MASS_INER=_F(  TOUT = 'OUI')
                     )

#
# 0.2HZ
#
SISM02=COMB_SISM_MODAL(   MODE_MECA=MODE02,
                          NUME_MODE=(1,),
                          AMOR_REDUIT=(0.03,),
                          MASS_INER=TABMAS02,
                          MONO_APPUI = 'OUI',
                          EXCIT=_F( AXE = ( 1.,  0.,  0., ),
                                    SPEC_OSCI = SPECT_X,
                                    NATURE = 'DEPL'),
                          COMB_MODE=_F( TYPE = 'ABS'),
                          OPTION=('DEPL',
                                      )
                       )

#
DEPLX02=CREA_CHAMP(  OPERATION='EXTR', TYPE_CHAM='NOEU_DEPL_R',
NOM_CHAM='DEPL', RESULTAT=SISM02,
                       NOEUD_CMP=( 'DIR', 'X', ),
                       TITRE='DEPLACEMENT 0.2HZ'
                     )

#
TEST_RESU(   CHAM_NO=_F(  CHAM_GD = DEPLX02,
                       NOEUD = 'P2',
                       NOM_CMP = 'DX',
                       VALE = 8.4280E-2,
                       PRECISION = 0.01)
         )

#
# 1HZ
#
SISM1=COMB_SISM_MODAL(   MODE_MECA=MODE1,
                         NUME_MODE=(1,),
                         AMOR_REDUIT=(0.03,),
                         MASS_INER=TABMAS1,
                         MONO_APPUI = 'OUI',
                         EXCIT=_F(  AXE = ( 1.,  0.,  0., ),
#                                    SPEC_OSCI  : SPECT_X
                                    SPEC_OSCI = SPECT3,
                                    NATURE = 'DEPL'),
                         COMB_MODE=_F( TYPE = 'ABS'),
                         OPTION=('DEPL',
                                      )
                       )

#
DEPLX1=CREA_CHAMP(  OPERATION='EXTR', TYPE_CHAM='NOEU_DEPL_R',
NOM_CHAM='DEPL', RESULTAT=SISM1,
                       NOEUD_CMP=( 'DIR', 'X', ),
                      TITRE='DEPLACEMENT 1HZ'
                     )

#
TEST_RESU(   CHAM_NO=_F(  CHAM_GD = DEPLX1,
                       NOEUD = 'P2',
                       NOM_CMP = 'DX',
                       VALE = 4.4745E-2,
                       PRECISION = 0.01)
         )

#
# 5HZ
#
SISM5=COMB_SISM_MODAL(   MODE_MECA=MODE5,
                         NUME_MODE=(1,),
                         AMOR_REDUIT=(0.03,),
                         MASS_INER=TABMAS5,
                         MONO_APPUI = 'OUI',
                         EXCIT=_F( AXE = ( 1.,  0.,  0., ),
                                   SPEC_OSCI = SPECT3,
#                                   SPEC_OSCI  : SPECT_X
                                   NATURE = 'DEPL'),
                                   COMB_MODE=_F( TYPE = 'ABS'),
                                   OPTION=('DEPL',
                                      )
                       )

#
DEPLX5=CREA_CHAMP(  OPERATION='EXTR', TYPE_CHAM='NOEU_DEPL_R',
NOM_CHAM='DEPL', RESULTAT=SISM5,
                       NOEUD_CMP=( 'DIR', 'X', ),
                      TITRE='DEPLACEMENT 5HZ'
                     )

#
TEST_RESU(   CHAM_NO=_F(  CHAM_GD = DEPLX5,
                       NOEUD = 'P2',
                       NOM_CMP = 'DX',
                       VALE = 1.8309E-3,
                       PRECISION = 0.01)
         )

#
# 10HZ
#
SISM10=COMB_SISM_MODAL(   MODE_MECA=MODE10,
                          NUME_MODE=(1,),
                          AMOR_REDUIT=(0.03,),
                          MASS_INER=TABMAS10,
                          MONO_APPUI = 'OUI',
                          EXCIT=_F( AXE = ( 1.,  0.,  0., ),
                                    SPEC_OSCI = SPECT3,
#                                    SPEC_OSCI  : SPECT_X
                                    NATURE = 'DEPL'),
                          COMB_MODE=_F( TYPE = 'ABS'),
                          OPTION=('DEPL',
                                      )
                       )

#
DEPLX10=CREA_CHAMP(  OPERATION='EXTR', TYPE_CHAM='NOEU_DEPL_R',
NOM_CHAM='DEPL', RESULTAT=SISM10,
                       NOEUD_CMP=( 'DIR', 'X', ),
                       TITRE='DEPLACEMENT 10HZ'
                      )

#
TEST_RESU(   CHAM_NO=_F(  CHAM_GD = DEPLX10,
                       NOEUD = 'P2',
                       NOM_CMP = 'DX',
                       VALE = 2.7425E-4,
                       PRECISION = 0.01)
         )

#
# 15HZ
#
SISM15=COMB_SISM_MODAL(   MODE_MECA=MODE15,
                          NUME_MODE=(1,),
                          AMOR_REDUIT=(0.03,),
                          MASS_INER=TABMAS15,
                          MONO_APPUI = 'OUI',
                          EXCIT=_F( AXE = ( 1.,  0.,  0., ),
                                    SPEC_OSCI = SPECT3,
#                                    SPEC_OSCI  : SPECT_X
                                    NATURE = 'DEPL'),
                          COMB_MODE=_F( TYPE = 'ABS'),
                          OPTION=('DEPL',
                                      )
                       )

#
DEPLX15=CREA_CHAMP(  OPERATION='EXTR', TYPE_CHAM='NOEU_DEPL_R',
NOM_CHAM='DEPL', RESULTAT=SISM15,
                       NOEUD_CMP=( 'DIR', 'X', ),
                       TITRE='DEPLACEMENT 15HZ'
                      )

#
TEST_RESU(   CHAM_NO=_F(  CHAM_GD = DEPLX15,
                       NOEUD = 'P2',
                       NOM_CMP = 'DX',
                       VALE = 8.6072E-5,
                       PRECISION = 0.01)
         )

#
# 20HZ
#
SISM20=COMB_SISM_MODAL(   MODE_MECA=MODE20,
                          NUME_MODE=(1,),
                          AMOR_REDUIT=(0.03,),
                          MASS_INER=TABMAS20,
                          MONO_APPUI = 'OUI',
                          EXCIT=_F( AXE = ( 1.,  0.,  0., ),
                                    SPEC_OSCI = SPECT3,
#                                    SPEC_OSCI  : SPECT_X
                                    NATURE = 'DEPL'),
                          COMB_MODE=_F( TYPE = 'ABS'),
                          OPTION=('DEPL',
                                      )
                       )

#
DEPLX20=CREA_CHAMP(  OPERATION='EXTR', TYPE_CHAM='NOEU_DEPL_R',
NOM_CHAM='DEPL', RESULTAT=SISM20,
                       NOEUD_CMP=( 'DIR', 'X', ),
                       TITRE='DEPLACEMENT 20HZ'
                      )

#
TEST_RESU(   CHAM_NO=_F(  CHAM_GD = DEPLX20,
                       NOEUD = 'P2',
                       NOM_CMP = 'DX',
                       VALE = 4.3102E-5,
                       PRECISION = 0.01)
         )

#
# 25HZ
#
SISM25=COMB_SISM_MODAL(   MODE_MECA=MODE25,
                          NUME_MODE=(1,),
                          AMOR_REDUIT=(0.03,),
                          MASS_INER=TABMAS25,
                          MONO_APPUI = 'OUI',
                          EXCIT=_F( AXE = ( 1.,  0.,  0., ),
                                    SPEC_OSCI = SPECT3,
#                                    SPEC_OSCI  : SPECT_X
                                    NATURE = 'DEPL'),
                          COMB_MODE=_F( TYPE = 'ABS'),
                          OPTION=('DEPL',
                                      )
                       )

#
DEPLX25=CREA_CHAMP(  OPERATION='EXTR', TYPE_CHAM='NOEU_DEPL_R',
NOM_CHAM='DEPL', RESULTAT=SISM25,
                       NOEUD_CMP=( 'DIR', 'X', ),
                       TITRE='DEPLACEMENT 25HZ'
                      )

#
TEST_RESU(   CHAM_NO=_F(  CHAM_GD = DEPLX25,
                       NOEUD = 'P2',
                       NOM_CMP = 'DX',
                       VALE = 2.6867E-5,
                       PRECISION = 0.01)
         )

#
# 29.5HZ
#
SISM29=COMB_SISM_MODAL(   MODE_MECA=MODE29,
                          NUME_MODE=(1,),
                          AMOR_REDUIT=(0.03,),
                          MASS_INER=TABMAS29,
                          MONO_APPUI = 'OUI',
                          EXCIT=_F( AXE = ( 1.,  0.,  0., ),
                                    SPEC_OSCI = SPECT3,
#                                    SPEC_OSCI  : SPECT_X
                                    NATURE = 'DEPL'),
                          COMB_MODE=_F( TYPE = 'ABS'),
                          OPTION=('DEPL',
                                      )
                       )

#
DEPLX29=CREA_CHAMP(  OPERATION='EXTR', TYPE_CHAM='NOEU_DEPL_R',
NOM_CHAM='DEPL', RESULTAT=SISM29,
                       NOEUD_CMP=( 'DIR', 'X', ),
                       TITRE='DEPLACEMENT 29.5HZ'
                      )

#
TEST_RESU(   CHAM_NO=_F(  CHAM_GD = DEPLX29,
                       NOEUD = 'P2',
                       NOM_CMP = 'DX',
                       VALE = 1.9343E-5,
                       PRECISION = 0.01)
         )

#
# 35.5HZ
#
SISM35=COMB_SISM_MODAL(   MODE_MECA=MODE35,
                          NUME_MODE=(1,),
                          AMOR_REDUIT=(0.03,),
                          MASS_INER=TABMAS35,
                          MONO_APPUI = 'OUI',
                          EXCIT=_F( AXE = ( 1.,  0.,  0., ),
                                    SPEC_OSCI = SPECT3,
#                                    SPEC_OSCI  : SPECT_X
                                    NATURE = 'DEPL'),
                          COMB_MODE=_F( TYPE = 'ABS'),
                          OPTION=('DEPL',
                                      )
                       )

#
DEPLX35=CREA_CHAMP(  OPERATION='EXTR', TYPE_CHAM='NOEU_DEPL_R',
NOM_CHAM='DEPL', RESULTAT=SISM35,
                       NOEUD_CMP=( 'DIR', 'X', ),
                       TITRE='DEPLACEMENT 35.5HZ'
                      )

#
TEST_RESU(   CHAM_NO=_F(  CHAM_GD = DEPLX35,
                       NOEUD = 'P2',
                       NOM_CMP = 'DX',
                       VALE = 1.3350E-5,
                       PRECISION = 0.01)
         )

#
#
#----------------------------------------------------------------------
FIN()
#
