# TITRE TEST ANALYTIQUE DE LA GENERATION DE FONCTIONS ALEATOIRES
#            CONFIGURATION MANAGEMENT OF EDF VERSION
# ======================================================================
# COPYRIGHT (C) 1991 - 2013  EDF R&D                  WWW.CODE-ASTER.ORG
# THIS PROGRAM IS FREE SOFTWARE; YOU CAN REDISTRIBUTE IT AND/OR MODIFY
# IT UNDER THE TERMS OF THE GNU GENERAL PUBLIC LICENSE AS PUBLISHED BY
# THE FREE SOFTWARE FOUNDATION; EITHER VERSION 2 OF THE LICENSE, OR
# (AT YOUR OPTION) ANY LATER VERSION.
#
# THIS PROGRAM IS DISTRIBUTED IN THE HOPE THAT IT WILL BE USEFUL, BUT
# WITHOUT ANY WARRANTY; WITHOUT EVEN THE IMPLIED WARRANTY OF
# MERCHANTABILITY OR FITNESS FOR A PARTICULAR PURPOSE. SEE THE GNU
# GENERAL PUBLIC LICENSE FOR MORE DETAILS.
#
# YOU SHOULD HAVE RECEIVED A COPY OF THE GNU GENERAL PUBLIC LICENSE
# ALONG WITH THIS PROGRAM; IF NOT, WRITE TO EDF R&D CODE_ASTER,
#    1 AVENUE DU GENERAL DE GAULLE, 92141 CLAMART CEDEX, FRANCE.
# ======================================================================
#       CONNUS PAR LEUR INTERSPECTRE
#
# GENERATION DE DEUX FONCTIONS ALEATOIRES, LA DEUXIEME EST CORRELEE A LA
# PREMIER AVEX UN DECALAGE DE T=0.015s ET COEF. DE CORRE. DE RHO=0.8
# Responsable : S.Cambier

import numpy as NP
from math import atan

DEBUT(CODE=_F(NOM='zzzz180a',NIV_PUB_WEB='INTERNET',VISU_EFICAS='NON'),
PAR_LOT='NON',DEBUG=_F(SDVERI='OUI'))

#
#################################################################
# 1.  CAS GENERATION AVEC INTERPOLATION, DUREE IMPOSEE
#################################################################
#

##############################
# DEFINITION DE L INTERSPECTRE
##############################

# PARAMETRES DE CORRELATION ENTRE LES DEUX FCTS A GENERER : DECALAGE ET
# COEFF. DE CORREL.
T=0.025
RHO=0.8

t11=[]
t22=[]
t12=[]

for f in NP.arange(0.,300.2,.2):
  if f<=100:
    c11=2.
  elif f<=200:
    c11=(1.E-2-2.)*f/100+4.-1.E-2
  else:
    c11=1.E-2
  t11[len(t11):]=[f,c11,0.]
  t22[len(t22):]=[f,1.,0.]
  c12=NP.sqrt(RHO*c11)*NP.exp(1j*2*pi*f*T)
  t12[len(t12):]=[f,c12.real,c12.imag]


ecart1=sqrt(603.)
ecart2=sqrt(600.)

SPECT11=DEFI_FONCTION(    NOM_PARA='FREQ',  VALE_C=tuple(t11))

SPECT22=DEFI_FONCTION(    NOM_PARA='FREQ',  VALE_C=tuple(t22))

SPECT12=DEFI_FONCTION(    NOM_PARA='FREQ',  VALE_C=tuple(t12))

INT1=DEFI_INTE_SPEC(    DIMENSION=2,PAR_FONCTION=(
                     _F(  NUME_ORDRE_I = 1,
                                    NUME_ORDRE_J = 1,
                                    FONCTION = SPECT11),
                     _F(  NUME_ORDRE_I = 1,
                                    NUME_ORDRE_J = 2,
                                    FONCTION = SPECT12),
                     _F(  NUME_ORDRE_I = 2,
                                    NUME_ORDRE_J = 2,
                                    FONCTION = SPECT22))
                          )

POST1=POST_DYNA_ALEA(       INTE_SPEC=INT1,
                                    OPTION='DIAG')


TEST_TABLE(CRITERE='RELATIF',
           VALE_CALC=24.556058315617349,
           REFERENCE='ANALYTIQUE',
           VALE_REFE=ecart1,
           NOM_PARA='ECART',
           TABLE=POST1,
           FILTRE=(_F(NOM_PARA='NUME_ORDRE_I',
                      VALE_I=1,),
                   _F(NOM_PARA='NUME_ORDRE_J',
                      VALE_I=1,),
                   ),
           )

TEST_TABLE(CRITERE='RELATIF',
           VALE_CALC=24.494897427831781,
           REFERENCE='ANALYTIQUE',
           VALE_REFE=ecart2,
           NOM_PARA='ECART',
           TABLE=POST1,
           FILTRE=(_F(NOM_PARA='NUME_ORDRE_I',
                      VALE_I=2,),
                   _F(NOM_PARA='NUME_ORDRE_J',
                      VALE_I=2,),
                   ),
           )

##############################
# GENERATION DES FCT ALEATOIRES, CAS AVEC INTERPOLATION
##############################

nbtir = 10

VECT1=GENE_FONC_ALEA(
                         INTE_SPEC=INT1,
                               NB_TIRAGE=nbtir,
                               DUREE_TIRAGE = 7.,
                                  INFO=2,
                          )

#

FONCT1=RECU_FONCTION(    TABLE=VECT1,
                              FILTRE=_F(  NOM_PARA = 'NUME_ORDRE',
                                       VALE_I = 1),
                              NOM_PARA_TABL='FONCTION',
                                   INTERPOL='LIN',
                                 PROL_DROITE='CONSTANT',
                                PROL_GAUCHE='EXCLU'
                           )

FONCT2=RECU_FONCTION(    TABLE=VECT1,
                              FILTRE=_F(  NOM_PARA = 'NUME_ORDRE',
                                       VALE_I = 2),
                              NOM_PARA_TABL='FONCTION',
                                   INTERPOL='LIN',
                                 PROL_DROITE='CONSTANT',
                                PROL_GAUCHE='EXCLU'
                           )

##############################
# TEST SUR LES VALEURS RMS DES TEMPORELS
##############################

RMS1=INFO_FONCTION( ECART_TYPE=_F(  FONCTION = FONCT1))

TEST_TABLE(REFERENCE='ANALYTIQUE',
           PRECISION=1.E-3,
           VALE_CALC=24.551079537,
           VALE_REFE=ecart1,
           NOM_PARA='ECART_TYPE',
           TABLE=RMS1,)

RMS2=INFO_FONCTION( ECART_TYPE=_F(  FONCTION = FONCT2))

TEST_TABLE(REFERENCE='ANALYTIQUE',
           PRECISION=1.E-3,
           VALE_CALC=24.494067308,
           VALE_REFE=ecart2,
           NOM_PARA='ECART_TYPE',
           TABLE=RMS2,)

##############################
# CALCUL DE L INTERSPECTRE DES FCTS GENEREES
##############################

ts =  aster.getvectjev("FONCT1             .VALE        ");
nbpoin=(len(ts)/2-1)/nbtir
tfin=ts[len(ts)/2-1]

#
INTERS=CALC_INTE_SPEC(          INST_INIT=0.,
                                 INST_FIN=tfin,
                                 DUREE_ANALYSE=tfin/nbtir,
                                DUREE_DECALAGE=tfin/nbtir,
                                      NB_POIN=nbpoin,
                                FONCTION=( FONCT1,  FONCT2, ), )

POST=POST_DYNA_ALEA(       INTE_SPEC=INTERS,
                                    OPTION='DIAG')

# IMPR_TABLE(TABLE=POST,
#            UNITE=8,
#            TITRE='DSP_EST ',
#            FORMAT='TABLEAU',);

TEST_TABLE(REFERENCE='ANALYTIQUE',
           PRECISION=1.E-3,
           VALE_CALC=24.551066349,
           VALE_REFE=ecart1,
           NOM_PARA='ECART',
           TABLE=POST,
           FILTRE=(_F(NOM_PARA='NUME_ORDRE_I',
                      VALE_I=1,),
                   _F(NOM_PARA='NUME_ORDRE_J',
                      VALE_I=1,),
                   ),
           )

TEST_TABLE(REFERENCE='ANALYTIQUE',
           PRECISION=1.E-3,
           VALE_CALC=24.494060991,
           VALE_REFE=ecart2,
           NOM_PARA='ECART',
           TABLE=POST,
           FILTRE=(_F(NOM_PARA='NUME_ORDRE_I',
                      VALE_I=2,),
                   _F(NOM_PARA='NUME_ORDRE_J',
                      VALE_I=2,),
                   ),
           )

TEST_TABLE(REFERENCE='ANALYTIQUE',
           PRECISION=1.E-2,
           VALE_CALC=602.754858882,
           VALE_REFE=ecart1**2,
           NOM_PARA='LAMBDA_00',
           TABLE=POST,
           FILTRE=(_F(NOM_PARA='NUME_ORDRE_I',
                      VALE_I=1,),
                   _F(NOM_PARA='NUME_ORDRE_J',
                      VALE_I=1,),
                   ),
           )

TEST_TABLE(REFERENCE='ANALYTIQUE',
           PRECISION=1.E-3,
           VALE_CALC=599.959023837,
           VALE_REFE=ecart2**2,
           NOM_PARA='LAMBDA_00',
           TABLE=POST,
           FILTRE=(_F(NOM_PARA='NUME_ORDRE_I',
                      VALE_I=2,),
                   _F(NOM_PARA='NUME_ORDRE_J',
                      VALE_I=2,),
                   ),
           )

TEST_TABLE(
           VALE_CALC=2.9823056016210001E5,
           NOM_PARA='LAMBDA_01',
           TABLE=POST,
           FILTRE=(_F(NOM_PARA='NUME_ORDRE_I',
                      VALE_I=1,),
                   _F(NOM_PARA='NUME_ORDRE_J',
                      VALE_I=1,),
                   ),
           )

TEST_TABLE(REFERENCE='ANALYTIQUE',
           PRECISION=1.E-2,
           VALE_CALC= 5.65381327E+05,
           VALE_REFE=300.*300.*2.*pi,
           NOM_PARA='LAMBDA_01',
           TABLE=POST,
           FILTRE=(_F(NOM_PARA='NUME_ORDRE_I',
                      VALE_I=2,),
                   _F(NOM_PARA='NUME_ORDRE_J',
                      VALE_I=2,),
                   ),
           )

##############################
# RECUP. DES MODULES ET PHASES, TEST SUR NORME L2 (VIA LES VALEURS "RMS")
##############################


MF11=RECU_FONCTION(    INTE_SPEC=INTERS,
                    NUME_ORDRE_I = 1,
                      )


tt =  aster.getvectjev("MF11               .VALE        ");
fmin=tt[0]
fmax=tt[len(tt)/2-1]

RMS11=INFO_FONCTION( RMS=_F(  FONCTION = MF11))

TEST_TABLE(REFERENCE='ANALYTIQUE',
           PRECISION=1.E-2,
           VALE_CALC=0.956628360,
           VALE_REFE=1.334183*sqrt(300./(fmax-fmin)),
           NOM_PARA='RMS',
           TABLE=RMS11,)

F12=RECU_FONCTION(    INTE_SPEC=INTERS,
                    NUME_ORDRE_I = 1,
                    NUME_ORDRE_J = 2,
                      )

MF12=CALC_FONCTION(   EXTRACTION=_F(   FONCTION = F12,
                                    PARTIE = 'MODULE'),
                      INTERPOL=('LIN','LOG'),)

RMS12=INFO_FONCTION( RMS=_F(  FONCTION = MF12))

TEST_TABLE(REFERENCE='ANALYTIQUE',
           PRECISION=1.E-2,
           VALE_CALC=0.646535735,
           VALE_REFE=8.966604E-1*sqrt(300./(fmax-fmin)),
           NOM_PARA='RMS',
           TABLE=RMS12,)

PF12=CALC_FONCTION(   EXTRACTION=_F(   FONCTION = F12,
                                    PARTIE = 'PHASE') )

MF22=RECU_FONCTION(    INTE_SPEC=INTERS,
                    NUME_ORDRE_I = 2,
                      )

RMS22=INFO_FONCTION( RMS=_F(  FONCTION = MF22))

TEST_TABLE(REFERENCE='ANALYTIQUE',
           PRECISION=1.E-2,
           VALE_CALC=0.719201705,
           VALE_REFE=1.E+00*sqrt(300./(fmax-fmin)),
           NOM_PARA='RMS',
           TABLE=RMS22,)

##############################
# VALEURS SPECTRALES : TEST SUR LES PHASES ET LES LOG DES MODULES
##############################

#ON ECRIT LA FCT LOG POUR POUVOIR COMPARER LES VALEURS EN ECHELLE LOG DANS TEST_FONCTION
FLOG = FORMULE(NOM_PARA='DSP',VALE='log(DSP)')
LX=DEFI_LIST_REEL( VALE=(tuple(NP.power(10,NP.arange(-10,10,.01)))))
FFLOG=CALC_FONC_INTERP(     FONCTION=FLOG,    LIST_PARA=LX,
                            NOM_PARA='DSP',
                            NOM_RESU='LOG',
                            PROL_GAUCHE='EXCLU',  PROL_DROITE='EXCLU',
                            INTERPOL='LIN',
                            TITRE=' FONCTION LOG '    )

LOGF11=CALC_FONCTION(    COMPOSE=_F(  FONC_RESU = FFLOG,
                                    FONC_PARA = MF11),
                            PROL_GAUCHE='CONSTANT',  PROL_DROITE='CONSTANT',
                            INTERPOL='LIN', )

LOGF12=CALC_FONCTION(    COMPOSE=_F(  FONC_RESU = FFLOG,
                                    FONC_PARA = MF12),
                            PROL_GAUCHE='CONSTANT',  PROL_DROITE='CONSTANT',
                            INTERPOL='LIN', )

LOGF22=CALC_FONCTION(    COMPOSE=_F(  FONC_RESU = FFLOG,
                                    FONC_PARA = MF22),
                            PROL_GAUCHE='CONSTANT',  PROL_DROITE='CONSTANT',
                            INTERPOL='LIN', )

v1=NP.sqrt(RHO*2.)*NP.exp(1j*2*pi*10.*T)
v2=NP.sqrt(RHO*1.005)*NP.exp(1j*2*pi*150.*T)

# CES TESTS NE SONT PAS EFFECTUES SUR DES QUANTITES QUI ONT CONVERGES
# STATISTIQUEMENT => GRANDE TOLERANCE

TEST_FONCTION(VALEUR=(_F(VALE_CALC=0.727654159234,
                         VALE_REFE=log(2.),
                         CRITERE='ABSOLU',
                         VALE_PARA=10.0,
                         REFERENCE='ANALYTIQUE',
                         PRECISION=log(1.3),
                         FONCTION=LOGF11,),
                      _F(VALE_CALC=0.0493676012722,
                         VALE_REFE=log(1.005),
                         CRITERE='ABSOLU',
                         VALE_PARA=150.0,
                         REFERENCE='ANALYTIQUE',
                         PRECISION=log(1.3),
                         FONCTION=LOGF11,),
                      _F(VALE_CALC=0.21642974687,
                         VALE_REFE=log(abs(v1)),
                         CRITERE='ABSOLU',
                         VALE_PARA=10.0,
                         REFERENCE='ANALYTIQUE',
                         PRECISION=log(1.3),
                         FONCTION=LOGF12,),
                      _F(VALE_CALC=96.9777065887,
                         VALE_REFE=atan(v1.imag/v1.real)/pi*180,
                         CRITERE='ABSOLU',
                         VALE_PARA=10.0,
                         REFERENCE='ANALYTIQUE',
                         PRECISION=20.0,
                         FONCTION=PF12,),
                      _F(VALE_CALC=-0.109832581628,
                         VALE_REFE=log(abs(v2)),
                         CRITERE='ABSOLU',
                         VALE_PARA=150.0,
                         REFERENCE='ANALYTIQUE',
                         PRECISION=log(1.3),
                         FONCTION=LOGF12,),
                      _F(VALE_CALC=-95.5378164278,
                         VALE_REFE=atan(v2.imag/v2.real)/pi*180,
                         CRITERE='ABSOLU',
                         VALE_PARA=150.0,
                         REFERENCE='ANALYTIQUE',
                         PRECISION=20.0,
                         FONCTION=PF12,),
                      _F(VALE_CALC=-0.0793699613263,
                         VALE_REFE=log(1.),
                         CRITERE='ABSOLU',
                         VALE_PARA=10.0,
                         REFERENCE='ANALYTIQUE',
                         PRECISION=log(1.3),
                         FONCTION=LOGF22,),
                      _F(VALE_CALC=-0.0540101586633,
                         VALE_REFE=log(1.),
                         CRITERE='ABSOLU',
                         VALE_PARA=150.0,
                         REFERENCE='ANALYTIQUE',
                         PRECISION=log(1.3),
                         FONCTION=LOGF22,),
                      ),
              )

#
#################################################################
# 2.  CAS GENERATION AVEC INTERPOLATION, NB_POIN IMPOSE
#              + TEST INIT_ALEA=0
#################################################################
#
DETRUIRE(CONCEPT=_F(NOM=(VECT1,FONCT1,FONCT2,RMS1,RMS2,)),INFO=1)

##############################
# GENERATION DES FCT ALEATOIRES,
##############################
VECT1=GENE_FONC_ALEA(
                         INTE_SPEC=INT1,
                               NB_TIRAGE=nbtir,
                               NB_POIN=2048,
                               INIT_ALEA=0,
                          )

FONCT1=RECU_FONCTION(    TABLE=VECT1,
                              FILTRE=_F(  NOM_PARA = 'NUME_ORDRE',
                                       VALE_I = 1),
                              NOM_PARA_TABL='FONCTION',    )

FONCT2=RECU_FONCTION(    TABLE=VECT1,
                              FILTRE=_F(  NOM_PARA = 'NUME_ORDRE',
                                       VALE_I = 2),
                              NOM_PARA_TABL='FONCTION',     )

##############################
# TEST SUR LES VALEURS RMS DES TEMPORELS
##############################

RMS1=INFO_FONCTION( ECART_TYPE=_F(  FONCTION = FONCT1))

TEST_TABLE(REFERENCE='ANALYTIQUE',
           PRECISION=1.E-2,
           VALE_CALC=24.538982456,
           VALE_REFE=ecart1,
           NOM_PARA='ECART_TYPE',
           TABLE=RMS1,)

RMS2=INFO_FONCTION( ECART_TYPE=_F(  FONCTION = FONCT2))

TEST_TABLE(REFERENCE='ANALYTIQUE',
           PRECISION=1.E-2,
           VALE_CALC=24.505760145,
           VALE_REFE=ecart2,
           NOM_PARA='ECART_TYPE',
           TABLE=RMS2,)

#
#################################################################
# 3.  CAS GENERATION AVEC INTERPOLATION, RIEN IMPOSE,
#              + TEST TRONCATURE 10-100 HZ
#              + TEST INIT_ALEA=100000000
#################################################################
#
DETRUIRE(CONCEPT=_F(NOM=(VECT1,FONCT1,FONCT2,RMS1,RMS2,)),INFO=1)

##############################
# GENERATION DES FCT ALEATOIRES,
##############################
VECT1=GENE_FONC_ALEA(
                         INTE_SPEC=INT1,
                               NB_TIRAGE=nbtir,
                               FREQ_INIT=10.,
                               FREQ_FIN=100.,
                               INIT_ALEA=100000000,
                          )

FONCT1=RECU_FONCTION(    TABLE=VECT1,
                              FILTRE=_F(  NOM_PARA = 'NUME_ORDRE',
                                       VALE_I = 1),
                              NOM_PARA_TABL='FONCTION',    )

FONCT2=RECU_FONCTION(    TABLE=VECT1,
                              FILTRE=_F(  NOM_PARA = 'NUME_ORDRE',
                                       VALE_I = 2),
                              NOM_PARA_TABL='FONCTION',     )

##############################
# TEST SUR LES VALEURS RMS DES TEMPORELS
##############################
RMS1=INFO_FONCTION( ECART_TYPE=_F(  FONCTION = FONCT1))

TEST_TABLE(REFERENCE='ANALYTIQUE',
           PRECISION=1.E-2,
           VALE_CALC=18.945156230,
           VALE_REFE=sqrt(180.*2.),
           NOM_PARA='ECART_TYPE',
           TABLE=RMS1,)

RMS2=INFO_FONCTION( ECART_TYPE=_F(  FONCTION = FONCT2))

TEST_TABLE(REFERENCE='ANALYTIQUE',
           PRECISION=1.E-2,
           VALE_CALC=13.453976783,
           VALE_REFE=sqrt(90.*2.),
           NOM_PARA='ECART_TYPE',
           TABLE=RMS2,)

#
#################################################################
# 4.  CAS GENERATION AVEC INTERPOLATION
#              + NB_POIN IMPOSE ET DUREE IMPOSEE
#################################################################
#
DETRUIRE(CONCEPT=_F(NOM=(VECT1,FONCT1,FONCT2,RMS1,RMS2,)),INFO=1)

##############################
# GENERATION DES FCT ALEATOIRES,
##############################
VECT1=GENE_FONC_ALEA(
                         INTE_SPEC=INT1,
                               NB_TIRAGE=nbtir,
                               DUREE_TIRAGE = 7.,
                               NB_POIN=4096,
                               INIT_ALEA=0,
                          )

FONCT1=RECU_FONCTION(    TABLE=VECT1,
                              FILTRE=_F(  NOM_PARA = 'NUME_ORDRE',
                                       VALE_I = 1),
                              NOM_PARA_TABL='FONCTION',    )

FONCT2=RECU_FONCTION(    TABLE=VECT1,
                              FILTRE=_F(  NOM_PARA = 'NUME_ORDRE',
                                       VALE_I = 2),
                              NOM_PARA_TABL='FONCTION',     )

##############################
# TEST SUR LES VALEURS RMS DES TEMPORELS
##############################

RMS1=INFO_FONCTION( ECART_TYPE=_F(  FONCTION = FONCT1))

TEST_TABLE(REFERENCE='ANALYTIQUE',
           PRECISION=1.E-3,
           VALE_CALC=24.551079537,
           VALE_REFE=ecart1,
           NOM_PARA='ECART_TYPE',
           TABLE=RMS1,)

RMS2=INFO_FONCTION( ECART_TYPE=_F(  FONCTION = FONCT2))

TEST_TABLE(REFERENCE='ANALYTIQUE',
           PRECISION=1.E-3,
           VALE_CALC=24.494067308,
           VALE_REFE=ecart2,
           NOM_PARA='ECART_TYPE',
           TABLE=RMS2,)

#
#################################################################
# 5.  CAS GENERATION AVEC INTERPOLATION SANS RIEN D'IMPOSE
#################################################################
#
DETRUIRE(CONCEPT=_F(NOM=(VECT1,FONCT1,FONCT2,RMS1,RMS2,)),INFO=1)

##############################
# GENERATION DES FCT ALEATOIRES,
##############################
VECT1=GENE_FONC_ALEA(
                         INTE_SPEC=INT1,
                          )

FONCT1=RECU_FONCTION(    TABLE=VECT1,
                              FILTRE=_F(  NOM_PARA = 'NUME_ORDRE',
                                       VALE_I = 1),
                              NOM_PARA_TABL='FONCTION',    )

FONCT2=RECU_FONCTION(    TABLE=VECT1,
                              FILTRE=_F(  NOM_PARA = 'NUME_ORDRE',
                                       VALE_I = 2),
                              NOM_PARA_TABL='FONCTION',     )

##############################
# TEST SUR LES VALEURS RMS DES TEMPORELS
##############################

RMS1=INFO_FONCTION( ECART_TYPE=_F(  FONCTION = FONCT1))

TEST_TABLE(REFERENCE='ANALYTIQUE',
           PRECISION=1.E-2,
           VALE_CALC=24.567316500,
           VALE_REFE=ecart1,
           NOM_PARA='ECART_TYPE',
           TABLE=RMS1,)

RMS2=INFO_FONCTION( ECART_TYPE=_F(  FONCTION = FONCT2))

TEST_TABLE(REFERENCE='ANALYTIQUE',
           PRECISION=1.E-2,
           VALE_CALC=24.474228126,
           VALE_REFE=ecart2,
           NOM_PARA='ECART_TYPE',
           TABLE=RMS2,)

#
##################################################################
# 6.  CAS GENERATION SANS INTERPOLATION
#################################################################
#
DETRUIRE(CONCEPT=_F(NOM=(VECT1,FONCT1,FONCT2,RMS1,RMS2,)),INFO=1)

##############################
# GENERATION DES FCT ALEATOIRES,
##############################

VECT1=GENE_FONC_ALEA(    INTE_SPEC=INT1,
                         NB_TIRAGE=nbtir,
                         INTERPOL='NON',    )

FONCT1=RECU_FONCTION(    TABLE=VECT1,
                              FILTRE=_F(  NOM_PARA = 'NUME_ORDRE',
                                       VALE_I = 1),
                              NOM_PARA_TABL='FONCTION',    )

FONCT2=RECU_FONCTION(    TABLE=VECT1,
                              FILTRE=_F(  NOM_PARA = 'NUME_ORDRE',
                                       VALE_I = 2),
                              NOM_PARA_TABL='FONCTION',     )

##########################################################################################
# TEST SUR LES VALEURS RMS DES TEMPORELS
##########################################################################################
# NOTE : LES RESULTATS OBTENUS SANS INTERPOLATION DU SPECTRE DEPENDENT LEGEREMENT
#        DE LA MACHINE D'EXECUTION (32/64 BITS), LE COMPILATEUR UTILISE ET DE LA VERSION 
#        DE PYTHON. POUR CES RAISONS, ON A RAJOUTE LES MOT-CLES TOLE_MACHINE DANS LES 
#        TEST_TABLES DES VALEURS RMS AVEC DES VALEURS INFERIEURES OU EGALES A 0.1%.
##########################################################################################

RMS1=INFO_FONCTION( ECART_TYPE=_F(  FONCTION = FONCT1))

TEST_TABLE(REFERENCE='ANALYTIQUE',
           TOLE_MACHINE=1.E-4,
           PRECISION=1.E-2,
           VALE_CALC=24.490963709,
           VALE_REFE=ecart1,
           NOM_PARA='ECART_TYPE',
           TABLE=RMS1,)

RMS2=INFO_FONCTION( ECART_TYPE=_F(  FONCTION = FONCT2))

TEST_TABLE(REFERENCE='ANALYTIQUE',
           TOLE_MACHINE=1.E-3,
           PRECISION=1.E-2,
           VALE_CALC=24.551284314,
           VALE_REFE=ecart2,
           NOM_PARA='ECART_TYPE',
           TABLE=RMS2,)

#
##################################################################
# 7.  CAS GENERATION SANS INTERPOLATION
#              + NB_POIN IMPOSE
#################################################################
#
DETRUIRE(CONCEPT=_F(NOM=(VECT1,FONCT1,FONCT2,RMS1,RMS2,)),INFO=1)

##############################
# GENERATION DES FCT ALEATOIRES,
##############################

VECT1=GENE_FONC_ALEA(    INTE_SPEC=INT1,
                         NB_TIRAGE=nbtir,
                         NB_POIN=2048,
                         INTERPOL='NON',    )

FONCT1=RECU_FONCTION(    TABLE=VECT1,
                              FILTRE=_F(  NOM_PARA = 'NUME_ORDRE',
                                       VALE_I = 1),
                              NOM_PARA_TABL='FONCTION',    )

FONCT2=RECU_FONCTION(    TABLE=VECT1,
                              FILTRE=_F(  NOM_PARA = 'NUME_ORDRE',
                                       VALE_I = 2),
                              NOM_PARA_TABL='FONCTION',     )

##############################
# TEST SUR LES VALEURS RMS DES TEMPORELS
##############################

RMS1=INFO_FONCTION( ECART_TYPE=_F(  FONCTION = FONCT1))

TEST_TABLE(REFERENCE='ANALYTIQUE',
           PRECISION=1.E-3,
           VALE_CALC=24.541437554,
           VALE_REFE=ecart1,
           NOM_PARA='ECART_TYPE',
           TABLE=RMS1,)

RMS2=INFO_FONCTION( ECART_TYPE=_F(  FONCTION = FONCT2))

TEST_TABLE(REFERENCE='ANALYTIQUE',
           PRECISION=1.E-3,
           VALE_CALC=24.501368431,
           VALE_REFE=ecart2,
           NOM_PARA='ECART_TYPE',
           TABLE=RMS2,)

#
#################################################################
# 8.  RETOUR CAS 1 :
#      LE MEILLEUR TEST : TEST SUR L ALLURE DES COURBES
#################################################################
"""
# MISE EN COMMENTAIRE POUR NE PAS SURCHARGER LES CAS TEST MAIS MONTRER
# UN EXEMPLE DE RESULTAT GRAPHIQUE DE GENE_FONC_ALEA

IMPR_FONCTION( UNITE=25,
              FORMAT= 'TABLEAU',
              TITRE= 'MODULE DSP F11',
              LEGENDE_X= 'Freq. (Hz)',
              ECHELLE_Y = 'LOG',
              COURBE=(_F(
                       FONCTION = MF11,) ,),
            )

IMPR_FONCTION( UNITE=25,
              FORMAT= 'TABLEAU',
              TITRE= 'MODULE DSP F12',
              LEGENDE_X= 'Freq. (Hz)',
              ECHELLE_Y = 'LOG',
              COURBE=(_F(
                       FONCTION = MF12,) ,),
            )

IMPR_FONCTION( UNITE=25,
              FORMAT= 'TABLEAU',
              TITRE= 'PHASE DSP F12',
              LEGENDE_X= 'Freq. (Hz)',
              COURBE=(_F(
                       FONCTION = PF12,) ,),
            )

IMPR_FONCTION( UNITE=25,
              FORMAT= 'TABLEAU',
              TITRE= 'MODULE DSP F22',
              LEGENDE_X= 'Freq. (Hz)',
              ECHELLE_Y = 'LOG',
              COURBE=(_F(
                       FONCTION = MF22,) ,),
            )

MSPECT11=CALC_FONCTION(   EXTRACTION=_F(   FONCTION = SPECT11,
                                    PARTIE = 'MODULE') )

PSPECT11=CALC_FONCTION(   EXTRACTION=_F(   FONCTION = SPECT11,
                                    PARTIE = 'PHASE') )

IMPR_FONCTION( UNITE=25,
              FORMAT= 'TABLEAU',
              TITRE= 'MODULE DSP CIBLE 11',
              LEGENDE_X= 'Freq. (Hz)',
              ECHELLE_Y = 'LOG',
              COURBE=(_F(
                       FONCTION = MSPECT11,) ,),
            )

IMPR_FONCTION( UNITE=25,
              FORMAT= 'TABLEAU',
              TITRE= 'PHASE DSP CIBLE 11',
              LEGENDE_X= 'Freq. (Hz)',
              COURBE=(_F(
                       FONCTION = PSPECT11,) ,),
            )

MSPECT12=CALC_FONCTION(   EXTRACTION=_F(   FONCTION = SPECT12,
                                    PARTIE = 'MODULE') )

PSPECT12=CALC_FONCTION(   EXTRACTION=_F(   FONCTION = SPECT12,
                                     PARTIE = 'PHASE') )

IMPR_FONCTION( UNITE=25,
              FORMAT= 'TABLEAU',
              TITRE= 'MODULE DSP CIBLE 12',
              LEGENDE_X= 'Freq. (Hz)',
              ECHELLE_Y = 'LOG',
              COURBE=(_F(
                       FONCTION = MSPECT12,) ,),
           )

IMPR_FONCTION( UNITE=25,
              FORMAT= 'TABLEAU',
              TITRE= 'PHASE DSP CIBLE 12',
              LEGENDE_X= 'Freq. (Hz)',
              COURBE=(_F(
                       FONCTION = PSPECT12,) ,),
           )

MSPECT22=CALC_FONCTION(   EXTRACTION=_F(   FONCTION = SPECT22,
                                    PARTIE = 'MODULE') )

PSPECT22=CALC_FONCTION(   EXTRACTION=_F(   FONCTION = SPECT22,
                                     PARTIE = 'PHASE') )

IMPR_FONCTION( UNITE=25,
              FORMAT= 'TABLEAU',
              TITRE= 'MODULE DSP CIBLE 22',
              LEGENDE_X= 'Freq. (Hz)',
              ECHELLE_Y = 'LOG',
              COURBE=(_F(
                       FONCTION = MSPECT22,) ,),
                       )

IMPR_FONCTION( UNITE=25,
              FORMAT= 'TABLEAU',
              TITRE= 'PHASE DSP CIBLE 22',
              LEGENDE_X= 'Freq. (Hz)',
              COURBE=(_F(
                       FONCTION = PSPECT22,) ,),
            )
"""

FIN( )
#
