# MODIF  DATE 17/04/2012   AUTEUR DELMAS J.DELMAS 
# TITRE COUPLAGE ASTER_HOMARD - CAS 3D EN HEXAEDRES
# zzzz121e.para = tps_job 60 mem_job 32Mo ncpus 1 liste_test R
#            CONFIGURATION MANAGEMENT OF EDF VERSION
# ======================================================================
# COPYRIGHT (C) 1991 - 2012  EDF R&D                  WWW.CODE-ASTER.ORG
# THIS PROGRAM IS FREE SOFTWARE; YOU CAN REDISTRIBUTE IT AND/OR MODIFY
# IT UNDER THE TERMS OF THE GNU GENERAL PUBLIC LICENSE AS PUBLISHED BY
# THE FREE SOFTWARE FOUNDATION; EITHER VERSION 2 OF THE LICENSE, OR
# (AT YOUR OPTION) ANY LATER VERSION.
#
# THIS PROGRAM IS DISTRIBUTED IN THE HOPE THAT IT WILL BE USEFUL, BUT
# WITHOUT ANY WARRANTY; WITHOUT EVEN THE IMPLIED WARRANTY OF
# MERCHANTABILITY OR FITNESS FOR A PARTICULAR PURPOSE. SEE THE GNU
# GENERAL PUBLIC LICENSE FOR MORE DETAILS.
#
# YOU SHOULD HAVE RECEIVED A COPY OF THE GNU GENERAL PUBLIC LICENSE
# ALONG WITH THIS PROGRAM; IF NOT, WRITE TO EDF R&D CODE_ASTER,
#    1 AVENUE DU GENERAL DE GAULLE, 92141 CLAMART CEDEX, FRANCE.
# ======================================================================
# RESPONSABLE GNICOLAS G.NICOLAS
# Attention : Ceci est un test de non regression et non pas d'evaluation
# de l'adaptation de maillage.
# . Cas d'un parallelepipede decoupe en 9 hexaedres, en degre 1
#
#                29            30            31           32
#                  ---------------------------------------.
#                 /            /            /            /.
#                /            /            /            / .
#             25----------------------------------------  .
#              /            /            /            /.  .
#             /            /            /            / .  .
#          21----------------------------------------  .  .
#           /            /            /            /.  .  .
#          /            /            /            / .  .  .16
#       17---------------------------------------.  .  . /
#         .            .            .            .  .  ./
#         .            .            .            .  .  .12
#         .            .            .            .  . /
#         .            .            .            .  ./
#         .            .            .            .  .8
#         .            .            .            . /
#         .            .            .            ./
#         ---------------------------------------.
#         1            2            3            4
#
# NOMBRE DE NOEUDS : 32
#
# NOMBRE DE MAILLES : 39
#                   QUAD4 : 30
#                   HEXA8 :  9
#
# NOMBRE DE GROUPES DE NOEUDS : 2
#                   B : NO4(6.,0.,0.)
#                   A : NO32(6.,6.,2.)
#
# NOMBRE DE GROUPES DE MAILLES : 5
#                   X_0     : 3  les quadrangles de la face x=0
#                   X_MAX   : 3  les quadrangles de la face x=6
#                   Z_MI_MA : 18 les quadrangles de la face inferieure, z=0,
#                                et de la face superieure, z=2
#                   Y_MI_MA : 6  les quadrangles de la face avant, y=0, et
#                                de la face arriere, y=6
#                   VOLUME  : 9  les hexaedres du volume
#
# . La face x=0 est encastree
# . On appuie, vers l'interieur, sur la face x=6
# . On est en presence de gravite
# Remarque : la gravite est inclinee par rapport aux axes pour casser la
#            symetrie du probleme. Cela permet d'assurer un extremum unique
#            pour l'indicateur d'erreur et donc une selection identique de
#            la maille a raffiner, quelle que soit la machine d'execution
#
# . Information
# . 2 adaptations avec des variantes

DEBUT(CODE=_F(NOM='ZZZZ121E',
              NIV_PUB_WEB='INTERNET',
              VISU_EFICAS='OUI',),
      DEBUG=_F(SDVERI='OUI',),);

#
# 1. DEFINITION DU MATERIAU

MATER2=DEFI_MATERIAU(ELAS=_F(E=220000.,
                             NU=0.33,
                             RHO=8300.,
                             ALPHA=16.E-6,),);

#
#
# 2. LECTURE DU MAILLAGE ET TEST DE LA MACRO SUR L'INFORMATION

M00=LIRE_MAILLAGE(FORMAT='MED',
                  NOM_MED='3x3___________________________00',);

#

# Attention : le test d'interpenetration peut etre long (voir la documentation).
MACR_INFO_MAIL(MAILLAGE=M00,
               NOMBRE='OUI',
               QUALITE='OUI',
               CONNEXITE='OUI',
               TAILLE='OUI',
               INTERPENETRATION='OUI',
               PROP_CALCUL='OUI',);

#
# 3. CALCUL SUR LE MAILLAGE 00
# 3.1. MODELE MECANIQUE

MODE00=AFFE_MODELE(MAILLAGE=M00,
                   AFFE=_F(TOUT='OUI',
                           PHENOMENE='MECANIQUE',
                           MODELISATION='3D',),);

M00=MODI_MAILLAGE(reuse =M00,
                  MAILLAGE=M00,
                  ORIE_PEAU_3D=_F(GROUP_MA=('X_0','X_MAX','Y_MI_MA','Z_MI_MA',),),);

#
# 3.2. MISE EN PLACE DU MATERIAU

MATE00=AFFE_MATERIAU(MAILLAGE=M00,
                     AFFE=_F(TOUT='OUI',
                             MATER=MATER2,),);

#
# 3.3. CHARGEMENTS
G = 9.81;

PRE = -300000.0;

PRES_0 = 1e-14;


#

CHAR00=AFFE_CHAR_MECA(MODELE=MODE00,
                      PESANTEUR=_F(GRAVITE=G,
                                   DIRECTION=(4.,6.,-1.,),),
                      FACE_IMPO=_F(GROUP_MA='X_0',
                                   DX=0.,
                                   DY=0.,
                                   DZ=0.,),
                      PRES_REP=(_F(GROUP_MA='X_MAX',
                                   PRES=PRE,),
                                _F(GROUP_MA=('Y_MI_MA','Z_MI_MA',),
                                   PRES=PRES_0,),),);

#
# 3.4. RESOLUTION

RESU00=MECA_STATIQUE(MODELE=MODE00,
                     CHAM_MATER=MATE00,
                     EXCIT=_F(CHARGE=CHAR00,),);

#
# 3.5. INDICATEUR D'ERREUR

RESU00=CALC_ERREUR(reuse =RESU00,
                   RESULTAT=RESU00,
                   OPTION=('ERME_ELEM',),);

#
# 3.6. IMPRESSION
#IMPR_RESU(FORMAT='MED',RESU=_F(RESULTAT=RESU00,),);


#
# 4. ADAPTATION DU MAILLAGE DE 00 VERS 01 SELON L'INDICATEUR D'ERREUR

MACR_ADAP_MAIL(MAILLAGE_N=M00,
               MAILLAGE_NP1=CO('M01'),
               ADAPTATION='RAFFINEMENT',
               RESULTAT_N=RESU00,
               NOM_CHAM='ERME_ELEM',
               NOM_CMP='ERREST',
               MAJ_CHAM=_F(CHAM_MAJ=CO('DEPL1'),
                           TYPE_CHAM='NOEU_DEPL_R',
                           RESULTAT=RESU00,
                           NOM_CHAM='DEPL',
                           NUME_ORDRE=1,),
               CRIT_RAFF_PE=0.1,
               QUALITE='OUI',
               CONNEXITE='OUI',
               TAILLE='OUI',);

#IMPR_RESU(FORMAT='MED',RESU=_F(CHAM_GD=DEPL1,),);

#
# 5. CALCUL SUR LE MAILLAGE 01
# 5.1. MODELE MECANIQUE

MODE01=AFFE_MODELE(MAILLAGE=M01,
                   AFFE=_F(TOUT='OUI',
                           PHENOMENE='MECANIQUE',
                           MODELISATION='3D',),);

#
# 5.2. MISE EN PLACE DES MATERIAUX

MATE01=AFFE_MATERIAU(MAILLAGE=M01,
                     AFFE=_F(TOUT='OUI',
                             MATER=MATER2,),);

#
# 5.3. CHARGEMENTS

CHAR01=AFFE_CHAR_MECA(MODELE=MODE01,
                      PESANTEUR=_F(GRAVITE=G,
                                   DIRECTION=(4.,6.,-1.,),),
                      FACE_IMPO=_F(GROUP_MA='X_0',
                                   DX=0.,
                                   DY=0.,
                                   DZ=0.,),
                      PRES_REP=(_F(GROUP_MA='X_MAX',
                                   PRES=PRE,),
                                _F(GROUP_MA=('Y_MI_MA','Z_MI_MA',),
                                   PRES=PRES_0,),),);

#
# 5.4. RESOLUTION

RESU01=MECA_STATIQUE(MODELE=MODE01,
                     CHAM_MATER=MATE01,
                     EXCIT=_F(CHARGE=CHAR01,),);

#
# 5.5. IMPRESSION
#IMPR_RESU(FORMAT='MED',RESU=_F(RESULTAT=RESU01,),);


#
# 7. ADAPTATION DU MAILLAGE DE 01 VERS 02
#    . RAFFINEMENT SELON UNE BOITE PARALLELEPIPEDIQUE
#    ON CHOISIT 3 PETITES BOITES QUI CHACUNE ENTOURENT UNE ARETE D'UN
#    HEXAEDRE. CES 3 ARETES N'ETANT PAS CONCOURRANTES, L'HEXAEDRE EST
#    DECOUPE EN 18 TETRAEDRES. DE MEME, SON VOISIN SE TROUVE ALORS
#    ATTAQUE PAR 2 ARETES EN VIS_A_VIS, DONC COUPE EN 2 PYRAMIDES
#    ET 12 TETRAEDRES. CELA PERMET DE TESTER LES INTERPOLATIONS SUR
#    LE NOEUD CENTRAL QUI EST CREE.

MACR_ADAP_MAIL(MAILLAGE_N=M01,
               MAILLAGE_NP1=CO('M02'),
               ADAPTATION='RAFF_DERA_ZONE',
               ZONE=(_F(TYPE='BOITE',
                       X_MINI= 3.99,
                       X_MAXI= 4.01,
                       Y_MINI= 3.99,
                       Y_MAXI= 4.01,
                       Z_MINI=-0.01,
                       Z_MAXI= 2.01,),
                     _F(TYPE='BOITE',
                       X_MINI= 3.99,
                       X_MAXI= 6.01,
                       Y_MINI= 5.99,
                       Y_MAXI= 6.01,
                       Z_MINI=-0.01,
                       Z_MAXI= 0.01,),
                     _F(TYPE='BOITE',
                       X_MINI= 5.99,
                       X_MAXI= 6.01,
                       Y_MINI= 3.99,
                       Y_MAXI= 6.01,
                       Z_MINI= 1.99,
                       Z_MAXI= 2.01,),),
               MAJ_CHAM=_F(CHAM_MAJ=CO('DEPL2'),
                           TYPE_CHAM='NOEU_DEPL_R',
                           RESULTAT=RESU01,
                           NOM_CHAM='DEPL',
                           NUME_ORDRE=1,),
               QUALITE='OUI',);

#IMPR_RESU(FORMAT='MED',RESU=_F(CHAM_GD=DEPL2,),);
#
# 8. CALCUL SUR LE MAILLAGE 02
# 8.1. MODELE MECANIQUE

MODE02=AFFE_MODELE(MAILLAGE=M02,
                   AFFE=_F(TOUT='OUI',
                           PHENOMENE='MECANIQUE',
                           MODELISATION='3D',),);

#
# 8.2. MISE EN PLACE DES MATERIAUX

MATE02=AFFE_MATERIAU(MAILLAGE=M02,
                     AFFE=_F(TOUT='OUI',
                             MATER=MATER2,),);

#
# 8.3. CHARGEMENTS

CHAR02=AFFE_CHAR_MECA(MODELE=MODE02,
                      PESANTEUR=_F(GRAVITE=G,
                                   DIRECTION=(4.,6.,-1.,),),
                      FACE_IMPO=_F(GROUP_MA='X_0',
                                   DX=0.,
                                   DY=0.,
                                   DZ=0.,),
                      PRES_REP=(_F(GROUP_MA='X_MAX',
                                   PRES=PRE,),
                                _F(GROUP_MA=('Y_MI_MA','Z_MI_MA',),
                                   PRES=PRES_0,),),);

#
# 8.4. RESOLUTION

RESU02=MECA_STATIQUE(MODELE=MODE02,
                     CHAM_MATER=MATE02,
                     EXCIT=_F(CHARGE=CHAR02,),);

#
# 8.5. INDICATEUR D'ERREUR

RESU02=CALC_ERREUR(reuse =RESU02,
                   RESULTAT=RESU02,
                   OPTION=('ERME_ELEM','ERME_ELNO','ERME_NOEU',),);

# 8.6. IMPRESSION
#IMPR_RESU(FORMAT='MED',RESU=_F(RESULTAT=RESU02,),);
#IMPR_RESU(RESU=_F(RESULTAT=RESU02,),);

# 9. TESTS DE NON-REGRESSION
#    ON CREE DEUX GROUPES DE NOEUD CONTENANT CHACUN UN DES NOEUDS CREES AU CENTRE
#    DES HEXAEDRES COUPES. CELA PERMET DE S'AFFRANCHIR D'EVENTUELS CHANGEMENTS DE
#    NUMEROTATION DES NOEUDS DANS HOMARD ET DE PERENISER LES TESTS
#    REMARQUE : LEUR NOM EST CELUI DU NOEUD POUR LA VERSION 10.02.20
#
M02=DEFI_GROUP( reuse =M02,
                MAILLAGE=M02,
                CREA_GROUP_NO=(_F(NOM='N55',
                                  OPTION='ENV_SPHERE',
                                  POINT=(3.,3.,1.),
                                  PRECISION=1/200.,
                                  RAYON=1/200.),
                              _F(NOM='N56',
                                  OPTION='ENV_SPHERE',
                                  POINT=(5.,5.,1.),
                                  PRECISION=1/200.,
                                  RAYON=1/200.),),
                INFO=2 );

#IMPR_RESU(FORMAT='MED',RESU=_F(MAILLAGE=M02,),);

TEST_RESU(CHAM_NO=(_F(CHAM_GD=DEPL2,
                     GROUP_NO='N55',
                     NOM_CMP='DX',
                     VALE=6.03633800,
                     CRITERE='RELATIF',
                     PRECISION=1.E-08,
                     REFERENCE='NON_REGRESSION',
                     VERSION='10.02.20',),
                   _F(CHAM_GD=DEPL2,
                     GROUP_NO='N56',
                     NOM_CMP='DZ',
                     VALE=-14.0615426,
                     CRITERE='RELATIF',
                     PRECISION=1.E-08,
                     REFERENCE='NON_REGRESSION',
                     VERSION='10.02.20',),),
          RESU=(_F(RESULTAT=RESU02,
                   NUME_ORDRE=1,
                   NOM_CHAM='DEPL',
                   NOM_CMP='DZ',
                   GROUP_NO='A',
                   VALE=-17.3329132,
                   CRITERE='RELATIF',
                   PRECISION=1.E-8,
                   REFERENCE='NON_REGRESSION',
                   VERSION='10.02.20',),
                _F(RESULTAT=RESU02,
                   NUME_ORDRE=1,
                   NOM_CHAM='ERME_NOEU',
                   NOM_CMP='ERREST',
                   GROUP_NO='A',
                   VALE=5.18187530E4,
                   CRITERE='RELATIF',
                   PRECISION=1.E-6,
                   REFERENCE='NON_REGRESSION',
                   VERSION='10.02.20',),),);

FIN();
