# ======================================================================
# COPYRIGHT (C) 1991 - 2016  EDF R&D                  WWW.CODE-ASTER.ORG
# THIS PROGRAM IS FREE SOFTWARE; YOU CAN REDISTRIBUTE IT AND/OR MODIFY
# IT UNDER THE TERMS OF THE GNU GENERAL PUBLIC LICENSE AS PUBLISHED BY
# THE FREE SOFTWARE FOUNDATION; EITHER VERSION 2 OF THE LICENSE, OR
# (AT YOUR OPTION) ANY LATER VERSION.
#
# THIS PROGRAM IS DISTRIBUTED IN THE HOPE THAT IT WILL BE USEFUL, BUT
# WITHOUT ANY WARRANTY; WITHOUT EVEN THE IMPLIED WARRANTY OF
# MERCHANTABILITY OR FITNESS FOR A PARTICULAR PURPOSE. SEE THE GNU
# GENERAL PUBLIC LICENSE FOR MORE DETAILS.
#
# YOU SHOULD HAVE RECEIVED A COPY OF THE GNU GENERAL PUBLIC LICENSE
# ALONG WITH THIS PROGRAM; IF NOT, WRITE TO EDF R&D CODE_ASTER,
#    1 AVENUE DU GENERAL DE GAULLE, 92141 CLAMART CEDEX, FRANCE.
# ======================================================================
#
DEBUT(CODE=_F(NIV_PUB_WEB='INTERNET'), DEBUG=_F(SDVERI='OUI'))
#======================================================================
#
#  Ce test sert a verifier la bonne programmation
#  des options  CHAR_MECA_HYDR_R et CHAR_MECA_SECH_R
#
#  Pour cela, on compare les solutions d'un probleme mecanique dans lequel
#  l'unique chargement est :
#       / CHAR_MECA_TEMP_R
#       / CHAR_MECA_HYDR_R
#       / CHAR_MECA_SECH_R
#
#  Les analogies sont :
#       B_ENDOGE*HYDR            = - ALPHA*(TEMP-TEMP_REF)
#       K_DESSIC*(SECH-SECH_REF) = + ALPHA*(TEMP-TEMP_REF)
#
#  Dans ce test, ce sont les variables de commande (TEMP,HYDR,SECH) qui
#  sont a l'origine des chargements.
#  On fait un calcul thermique (quelconque) qui determine TEMP.
#  Lorsque l'on a besoin de HYDR et SECH, on prend le champ de TEMP.
#
#======================================================================
#......................................................................
#
# MODELISATION 2D_AXIS:   121 NOEUDS -- 32 MAILLES QUA8
#......................................................................
#
#        INTERNE                   EXTERNE
#               D -----+----- C
# !               !    J    !
#                 !         !
# !               !         !
#                 !         !        10 MM
# !               !         !
#                 !         !
# !               !    F    !
#     19.5 MM   A -----+-----  B
# !-------------->   1.0 MM
#                 <--------->


MA=LIRE_MAILLAGE(FORMAT='MED', )


#=================================================================================================
# A) Calcul thermique :
#----------------------

MOTHER=AFFE_MODELE(  MAILLAGE=MA,
         AFFE=_F(  TOUT = 'OUI',PHENOMENE = 'THERMIQUE',
                           MODELISATION = 'PLAN'))

MATHER=DEFI_MATERIAU(THER=_F( LAMBDA = 1.0, RHO_CP = 0.0) )

CHMATHE=AFFE_MATERIAU(  MAILLAGE=MA,
                        AFFE=_F(  TOUT = 'OUI', MATER = MATHER))

CHTHE=AFFE_CHAR_THER(
            MODELE=MOTHER,TEMP_IMPO=(
        _F( GROUP_MA = ('BC',),TEMP = 0.5),
        _F( GROUP_MA = ('DA',),TEMP = -0.5))
                       )
TEMPLIN=THER_LINEAIRE( MODELE=MOTHER,  CHAM_MATER=CHMATHE,
                  EXCIT=_F( CHARGE = CHTHE)  )


#=================================================================================================
# B) Calculs mecaniques :
#------------------------
MO=AFFE_MODELE(  MAILLAGE=MA,
         AFFE=_F(  TOUT = 'OUI',PHENOMENE = 'MECANIQUE',
                           MODELISATION = 'AXIS'))

E    =DEFI_CONSTANTE (VALE=  2.E+5 )
NU   =DEFI_CONSTANTE (VALE=  0.3 )

MAT1 =DEFI_MATERIAU(ELAS=_F( E = 2.0E+5, NU = 0.3, RHO = 8.E-6, ALPHA = 1.E-5,))
MAT2 =DEFI_MATERIAU(ELAS_FO=_F( E = E, NU = NU, B_ENDOGE = 1.E-5))
MAT3 =DEFI_MATERIAU(ELAS_FO=_F( E = E, NU = NU, K_DESSIC = 1.E-5))

CHDIL=AFFE_CHAR_MECA(  MODELE=MO,
           DDL_IMPO=_F(  GROUP_MA = 'TOUT',   DY = 0.) )



# ------------------------------------------------------------------
# 1) variable de commande : TEMP (sert de reference)
#-----------------------------------------------------

CHMA1=AFFE_MATERIAU(  MAILLAGE=MA,
                        AFFE=_F(  TOUT = 'OUI', MATER = MAT1),
                        AFFE_VARC=_F(NOM_VARC='TEMP',  EVOL = TEMPLIN, VALE_REF = 0.),
                        )


DEP1=MECA_STATIQUE( MODELE=MO, CHAM_MATER=CHMA1,
                      EXCIT=_F( CHARGE = CHDIL), )


TEST_RESU(RESU=(_F(NUME_ORDRE=1,
                   GROUP_NO='A',
                   RESULTAT=DEP1,
                   NOM_CHAM='DEPL',
                   NOM_CMP='DX',
                   VALE_CALC=1.0562499149531001E-06,
                   CRITERE='RELATIF',
                   ),
                _F(NUME_ORDRE=1,
                   GROUP_NO='F',
                   RESULTAT=DEP1,
                   NOM_CHAM='DEPL',
                   NOM_CMP='DX',
                   VALE_CALC=-1.2376116900044999E-06,
                   CRITERE='RELATIF',
                   ),
                ),
          )

# ------------------------------------------------------------------
# 2) variable de commande : HYDR
#--------------------------------

CHMA2=AFFE_MATERIAU(  MAILLAGE=MA,
                        AFFE=_F(  TOUT = 'OUI', MATER = MAT2),
                        AFFE_VARC=_F(NOM_VARC='HYDR',  EVOL = TEMPLIN,  NOM_CHAM='TEMP'),
         VARC_HYDR    =_F(
           NOM_VARC        ='HYDR',  GRANDEUR        ='TEMP_R',
           CMP_GD          ='TEMP',  CMP_VARC        ='HYDR',
         ),
                        )


DEP2=MECA_STATIQUE( MODELE=MO, CHAM_MATER=CHMA2,
                      EXCIT=_F( CHARGE = CHDIL), )


TEST_RESU(RESU=(_F(NUME_ORDRE=1,
                   GROUP_NO='A',
                   REFERENCE='AUTRE_ASTER',
                   RESULTAT=DEP2,
                   NOM_CHAM='DEPL',
                   NOM_CMP='DX',
                   VALE_CALC=-1.05624991E-06,
                   VALE_REFE=-1.0562499149531001E-06,
                   CRITERE='RELATIF',
                   PRECISION=1.E-3,),
                _F(NUME_ORDRE=1,
                   GROUP_NO='F',
                   REFERENCE='AUTRE_ASTER',
                   RESULTAT=DEP2,
                   NOM_CHAM='DEPL',
                   NOM_CMP='DX',
                   VALE_CALC= 1.23761169E-06,
                   VALE_REFE=1.2376116900044999E-06,
                   CRITERE='RELATIF',
                   PRECISION=1.E-3,),
                ),
          )

# ------------------------------------------------------------------
# 3) variable de commande : SECH
#--------------------------------

CHMA3=AFFE_MATERIAU(  MAILLAGE=MA,
                        AFFE=_F(  TOUT = 'OUI', MATER = MAT3),
                        AFFE_VARC=_F(NOM_VARC='SECH',  EVOL = TEMPLIN, VALE_REF = 0.),
                        )


DEP3=MECA_STATIQUE( MODELE=MO, CHAM_MATER=CHMA3,
                      EXCIT=_F( CHARGE = CHDIL), )


TEST_RESU(RESU=(_F(NUME_ORDRE=1,
                   GROUP_NO='A',
                   REFERENCE='AUTRE_ASTER',
                   RESULTAT=DEP3,
                   NOM_CHAM='DEPL',
                   NOM_CMP='DX',
                   VALE_CALC= 1.05624991E-06,
                   VALE_REFE=1.0562499149531001E-06,
                   CRITERE='RELATIF',
                   PRECISION=1.E-3,),
                _F(NUME_ORDRE=1,
                   GROUP_NO='F',
                   REFERENCE='AUTRE_ASTER',
                   RESULTAT=DEP3,
                   NOM_CHAM='DEPL',
                   NOM_CMP='DX',
                   VALE_CALC=-1.23761169E-06,
                   VALE_REFE=-1.2376116900044999E-06,
                   CRITERE='RELATIF',
                   PRECISION=1.E-3,),
                ),
          )

# ------------------------------------------------------------------
# 4) Validation de l'option 'VARC_ELGA' :
#----------------------------------------
DEP2=CALC_CHAMP(reuse=DEP2,RESULTAT=DEP2,VARI_INTERNE=('VARC_ELGA'))


TEST_RESU(RESU=_F(NUME_ORDRE=1,
                  POINT=3,
                  RESULTAT=DEP2,
                  NOM_CHAM='VARC_ELGA',
                  NOM_CMP='HYDR',
                  VALE_CALC=-0.38908770817241001,
                  CRITERE='RELATIF',
                  MAILLE='M1',),
          )

# ------------------------------------------------------------------
# 5) Test FORC_VARC_ELEM dans CALCUL
# ------------------------------------------------------------------

M_EL=CALC_MATR_ELEM(OPTION='RIGI_MECA',
                   MODELE=MO,
                   CHAM_MATER=CHMA1,
                   CHARGE=CHDIL,);

NUMEDD=NUME_DDL(MATR_RIGI=M_EL,);


MATAS=ASSE_MATRICE(MATR_ELEM=M_EL,
                   NUME_DDL=NUMEDD,);

MATAS=FACTORISER(reuse =MATAS,
                MATR_ASSE=MATAS,);


U=CREA_CHAMP(TYPE_CHAM='NOEU_DEPL_R',
             OPERATION='AFFE',
             MAILLAGE=MA,
             AFFE=_F(TOUT='OUI',
                     NOM_CMP=('DX','DY',),
                     VALE=(0.,0.,),
                     ),);


SIGP=CREA_CHAMP(TYPE_CHAM='ELGA_SIEF_R',
                OPERATION='AFFE',
                MODELE=MO,
                AFFE=_F(TOUT='OUI',
                        NOM_CMP=('SIXX','SIYY','SIZZ',
                                 'SIXY',),
                        VALE=(0.,0.,0.,0.,),
                        ),);


VARIP=CREA_CHAMP(OPERATION='AFFE',
                 TYPE_CHAM='ELGA_VARI_R',
                 MODELE=MO,
                 AFFE=_F(TOUT='OUI',
                         NOM_CMP= ('V1',),
                         VALE =   (  0.,))
                 )

LIST1=DEFI_LIST_REEL(DEBUT=0.0,
                    INTERVALLE=_F(JUSQU_A=1.0,
                                  NOMBRE=1,),);

CONT1=CALCUL(OPTION=('FORC_VARC_ELEM_P'),
            MODELE=MO,
            CHAM_MATER=CHMA1,
            INCREMENT=_F(LIST_INST=LIST1,
                         NUME_ORDRE=1),
            EXCIT=_F(CHARGE=CHDIL),
            DEPL=U,
            INCR_DEPL=U,
            SIGM=SIGP,
            VARI=VARIP,
            COMPORTEMENT=_F(RELATION='ELAS',),
            );

FEL_DIL1=EXTR_TABLE(TYPE_RESU='VECT_ELEM_DEPL_R',
                 TABLE=CONT1,
                 NOM_PARA='NOM_SD',
                 FILTRE=_F(NOM_PARA='NOM_OBJET',
                           VALE_K='FORC_VARC_ELEM_P'),)


FAS_DIL1=ASSE_VECTEUR(VECT_ELEM=FEL_DIL1,
                    NUME_DDL=NUMEDD,);


LIST2=DEFI_LIST_REEL(DEBUT=-1.0,
                    INTERVALLE=_F(JUSQU_A=1.0,
                                  NOMBRE=2,),);

CONT2=CALCUL(OPTION=('FORC_VARC_ELEM_M'),
            MODELE=MO,
            CHAM_MATER=CHMA1,
            INCREMENT=_F(LIST_INST=LIST2,
                         NUME_ORDRE=1),
            EXCIT=_F(CHARGE=CHDIL),
            DEPL=U,
            INCR_DEPL=U,
            SIGM=SIGP,
            VARI=VARIP,
            COMPORTEMENT=_F(RELATION='ELAS',),
            );

FEL_DIL2=EXTR_TABLE(TYPE_RESU='VECT_ELEM_DEPL_R',
                 TABLE=CONT2,
                 NOM_PARA='NOM_SD',
                 FILTRE=_F(NOM_PARA='NOM_OBJET',
                           VALE_K='FORC_VARC_ELEM_M'),)


FAS_DIL2=ASSE_VECTEUR(VECT_ELEM=FEL_DIL2,
                    NUME_DDL=NUMEDD,);


DU1=RESOUDRE(MATR=MATAS,
             CHAM_NO=FAS_DIL1,);


DU2=RESOUDRE(MATR=MATAS,
             CHAM_NO=FAS_DIL2,);

TEST_RESU(CHAM_NO=(_F(
                   GROUP_NO='A',
                   CHAM_GD=DU1,
                   NOM_CMP='DX',
                   VALE_CALC=1.0562499149531001E-06,
                   CRITERE='RELATIF',
                   ),
                _F(
                   GROUP_NO='F',
                   CHAM_GD=DU1,
                   NOM_CMP='DX',
                   VALE_CALC=-1.2376116900044999E-06,
                   CRITERE='RELATIF',
                   ),
                ),
          )

TEST_RESU(CHAM_NO=(_F(
                   GROUP_NO='A',
                   CHAM_GD=DU2,
                   NOM_CMP='DX',
                   VALE_CALC=1.0562499149531001E-06,
                   CRITERE='RELATIF',
                   ),
                _F(
                   GROUP_NO='F',
                   CHAM_GD=DU2,
                   NOM_CMP='DX',
                   VALE_CALC=-1.2376116900044999E-06,
                   CRITERE='RELATIF',
                   ),
                ),
          )

FIN();
