# ======================================================================
# COPYRIGHT (C) 1991 - 2016  EDF R&D                  WWW.CODE-ASTER.ORG
# THIS PROGRAM IS FREE SOFTWARE; YOU CAN REDISTRIBUTE IT AND/OR MODIFY
# IT UNDER THE TERMS OF THE GNU GENERAL PUBLIC LICENSE AS PUBLISHED BY
# THE FREE SOFTWARE FOUNDATION; EITHER VERSION 2 OF THE LICENSE, OR
# (AT YOUR OPTION) ANY LATER VERSION.
#
# THIS PROGRAM IS DISTRIBUTED IN THE HOPE THAT IT WILL BE USEFUL, BUT
# WITHOUT ANY WARRANTY; WITHOUT EVEN THE IMPLIED WARRANTY OF
# MERCHANTABILITY OR FITNESS FOR A PARTICULAR PURPOSE. SEE THE GNU
# GENERAL PUBLIC LICENSE FOR MORE DETAILS.
#
# YOU SHOULD HAVE RECEIVED A COPY OF THE GNU GENERAL PUBLIC LICENSE
# ALONG WITH THIS PROGRAM; IF NOT, WRITE TO EDF R&D CODE_ASTER,
#    1 AVENUE DU GENERAL DE GAULLE, 92141 CLAMART CEDEX, FRANCE.
# ======================================================================
# ==============================================================================
DEBUT(CODE=_F(NIV_PUB_WEB='INTERNET'), DEBUG=_F(SDVERI='OUI'),)

#----------------------------------------------------------------------------------
# L'OBJECTIF DE CE TEST EST DE VALIDER LA PROGRAMMATION DES ROUTINES
# ECLA2D.F ET ECLA3D.F POUR TOUS LES SCHEMAS DE POINTS DE GAUSS DISPONIBLES.
#
# POUR CELA, ON CREE UN CHAMP 'ELGA' ANALYTIQUE ET ON VERIFIE QU'APRES PROJECTION
# DE CE CHAMP DU MAILLAGE SUR LUI MEME, LES VALEURS RESTENT IDENTIQUES.
#
# MODELISATION C :
#   TETRAEDRE / FPG4
#   TETRAEDRE / FPG5
#
#----------------------------------------------------------------------------------

MA1 = LIRE_MAILLAGE( )
MAILLAGE=CREA_MAILLAGE(MAILLAGE=MA1,  LINE_QUAD=_F(TOUT='OUI',),);

MODELE   = AFFE_MODELE(  MAILLAGE =    MAILLAGE, INFO=2,
           AFFE=(
              _F( MAILLE='M1', PHENOMENE = 'MECANIQUE', MODELISATION = '3D_SI', ),
              _F( MAILLE='M2', PHENOMENE = 'MECANIQUE', MODELISATION = '3D', ),
          ))

SIGXX = FORMULE(VALE='2.*(X+0.2) +5.*(Y+1.2)*(Y+1.2)  +7.3*(Z+1.85)', NOM_PARA=('X','Y','Z'),);
CHXN=CREA_CHAMP(TYPE_CHAM='NOEU_GEOM_R', OPERATION='EXTR',
                MAILLAGE=MAILLAGE, NOM_CHAM='GEOMETRIE',);
CHXG=CREA_CHAMP(TYPE_CHAM='ELGA_GEOM_R', OPERATION='DISC',
                MODELE=MODELE, CHAM_GD=CHXN,);

SIEFINI1=CREA_CHAMP(TYPE_CHAM='ELGA_NEUT_F', OPERATION='AFFE', MODELE=MODELE, PROL_ZERO='OUI',
                    AFFE=_F(TOUT='OUI', NOM_CMP=('X1',), VALE_F=(SIGXX,),),);

SIEFINI2=CREA_CHAMP(TYPE_CHAM='ELGA_NEUT_R', OPERATION='EVAL', CHAM_F=SIEFINI1, CHAM_PARA=CHXG,);

CH1=CREA_CHAMP(TYPE_CHAM='ELGA_SIEF_R', OPERATION='ASSE', MODELE=MODELE, PROL_ZERO='OUI',
                    ASSE=_F(TOUT='OUI', CHAM_GD=SIEFINI2, NOM_CMP=('X1',), NOM_CMP_RESU=('SIXX',),),);

CH2=PROJ_CHAMP(CHAM_GD=CH1,MODELE_1=MODELE, MODELE_2=MODELE,METHODE='ECLA_PG')

IMPR_RESU(RESU=_F(CHAM_GD=CH1,NOM_CMP='SIXX',),)
IMPR_RESU(RESU=_F(CHAM_GD=CH2,NOM_CMP='SIXX',),)

"""
if 1 : # pour visualiser le champ eclate :
    U2=CREA_RESU(OPERATION='AFFE', TYPE_RESU='EVOL_ELAS', NOM_CHAM='SIGM_ELGA',
                    AFFE=_F(CHAM_GD=CH2,INST=1.0,),);
    MACR_ECLA_PG( MODELE_INIT = MODELE,  RESU_INIT = U2, NOM_CHAM = ('SIGM_ELGA',), INST=(1.,),
                  RESULTAT = CO("U2B"), MAILLAGE = CO("MA2B"),SHRINK=0.9)
    IMPR_RESU(RESU=_F(RESULTAT=U2B,),FORMAT='MED')
"""


# 1.1 TEST_RESU POUR TETRAEDRE / FPG4 :
#---------------------------------------
TEST_RESU(CHAM_ELEM=(_F(
                        POINT=1,
                        NOM_CMP='SIXX',
                        MAILLE='M1',
                        CHAM_GD=CH1,
                        VALE_CALC=31.128676241524602,),
                     _F(
                        POINT=2,
                        NOM_CMP='SIXX',
                        MAILLE='M1',
                        CHAM_GD=CH1,
                        VALE_CALC=25.0385062977752,),
                     _F(
                        POINT=3,
                        NOM_CMP='SIXX',
                        MAILLE='M1',
                        CHAM_GD=CH1,
                        VALE_CALC=24.144079106775202,),
                     _F(
                        POINT=4,
                        NOM_CMP='SIXX',
                        MAILLE='M1',
                        CHAM_GD=CH1,
                        VALE_CALC=27.4087383539249,),
                     ),
          )

TEST_RESU(CHAM_ELEM=(_F(REFERENCE='AUTRE_ASTER',
                        POINT=1,
                        NOM_CMP='SIXX',
                        PRECISION=1.0000000000000001E-09,
                        MAILLE='M1',
                        CHAM_GD=CH2,
                        VALE_CALC=31.1286762415,
                        VALE_REFE=31.128676241524602,),
                     _F(REFERENCE='AUTRE_ASTER',
                        POINT=2,
                        NOM_CMP='SIXX',
                        PRECISION=1.0000000000000001E-09,
                        MAILLE='M1',
                        CHAM_GD=CH2,
                        VALE_CALC=25.0385062978,
                        VALE_REFE=25.0385062977752,),
                     _F(REFERENCE='AUTRE_ASTER',
                        POINT=3,
                        NOM_CMP='SIXX',
                        PRECISION=1.0000000000000001E-09,
                        MAILLE='M1',
                        CHAM_GD=CH2,
                        VALE_CALC=24.1440791068,
                        VALE_REFE=24.144079106775202,),
                     _F(REFERENCE='AUTRE_ASTER',
                        POINT=4,
                        NOM_CMP='SIXX',
                        PRECISION=1.0000000000000001E-09,
                        MAILLE='M1',
                        CHAM_GD=CH2,
                        VALE_CALC=27.4087383539,
                        VALE_REFE=27.4087383539249,),
                     ),
          )

# 1.2 TEST_RESU POUR TETRAEDRE / FPG5 :
#---------------------------------------
TEST_RESU(CHAM_ELEM=(_F(
                        POINT=1,
                        NOM_CMP='SIXX',
                        MAILLE='M2',
                        CHAM_GD=CH1,
                        VALE_CALC=30.7425,),
                     _F(
                        POINT=2,
                        NOM_CMP='SIXX',
                        MAILLE='M2',
                        CHAM_GD=CH1,
                        VALE_CALC=33.905000000000001,),
                     _F(
                        POINT=3,
                        NOM_CMP='SIXX',
                        MAILLE='M2',
                        CHAM_GD=CH1,
                        VALE_CALC=29.460555555555601,),
                     _F(
                        POINT=4,
                        NOM_CMP='SIXX',
                        MAILLE='M2',
                        CHAM_GD=CH1,
                        VALE_CALC=28.793888888888901,),
                     _F(
                        POINT=5,
                        NOM_CMP='SIXX',
                        MAILLE='M2',
                        CHAM_GD=CH1,
                        VALE_CALC=31.227222222222199,),
                     ),
          )

TEST_RESU(CHAM_ELEM=(_F(REFERENCE='AUTRE_ASTER',
                        POINT=1,
                        NOM_CMP='SIXX',
                        PRECISION=1.0000000000000001E-09,
                        MAILLE='M2',
                        CHAM_GD=CH2,
                        VALE_CALC=30.7425000000,
                        VALE_REFE=30.7425,),
                     _F(REFERENCE='AUTRE_ASTER',
                        POINT=2,
                        NOM_CMP='SIXX',
                        PRECISION=1.0000000000000001E-09,
                        MAILLE='M2',
                        CHAM_GD=CH2,
                        VALE_CALC=33.9050000000,
                        VALE_REFE=33.905000000000001,),
                     _F(REFERENCE='AUTRE_ASTER',
                        POINT=3,
                        NOM_CMP='SIXX',
                        PRECISION=1.0000000000000001E-09,
                        MAILLE='M2',
                        CHAM_GD=CH2,
                        VALE_CALC=29.4605555556,
                        VALE_REFE=29.460555555555601,),
                     _F(REFERENCE='AUTRE_ASTER',
                        POINT=4,
                        NOM_CMP='SIXX',
                        PRECISION=1.0000000000000001E-09,
                        MAILLE='M2',
                        CHAM_GD=CH2,
                        VALE_CALC=28.7938888889,
                        VALE_REFE=28.793888888888901,),
                     _F(REFERENCE='AUTRE_ASTER',
                        POINT=5,
                        NOM_CMP='SIXX',
                        PRECISION=1.0000000000000001E-09,
                        MAILLE='M2',
                        CHAM_GD=CH2,
                        VALE_CALC=31.2272222222,
                        VALE_REFE=31.227222222222199,),
                     ),
          )

FIN()
