# TITRE VALIDATION DE AFFE_CHAR_MECA/LIAISON_PROJ : 2D-2D
# ======================================================================
# COPYRIGHT (C) 1991 - 2015  EDF R&D                  WWW.CODE-ASTER.ORG
# THIS PROGRAM IS FREE SOFTWARE; YOU CAN REDISTRIBUTE IT AND/OR MODIFY
# IT UNDER THE TERMS OF THE GNU GENERAL PUBLIC LICENSE AS PUBLISHED BY
# THE FREE SOFTWARE FOUNDATION; EITHER VERSION 2 OF THE LICENSE, OR
# (AT YOUR OPTION) ANY LATER VERSION.
#
# THIS PROGRAM IS DISTRIBUTED IN THE HOPE THAT IT WILL BE USEFUL, BUT
# WITHOUT ANY WARRANTY; WITHOUT EVEN THE IMPLIED WARRANTY OF
# MERCHANTABILITY OR FITNESS FOR A PARTICULAR PURPOSE. SEE THE GNU
# GENERAL PUBLIC LICENSE FOR MORE DETAILS.
#
# YOU SHOULD HAVE RECEIVED A COPY OF THE GNU GENERAL PUBLIC LICENSE
# ALONG WITH THIS PROGRAM; IF NOT, WRITE TO EDF R&D CODE_ASTER,
#    1 AVENUE DU GENERAL DE GAULLE, 92141 CLAMART CEDEX, FRANCE.
# ======================================================================

DEBUT(CODE=_F(NIV_PUB_WEB='INTERNET'),DEBUG=_F(SDVERI='OUI'))

mail=LIRE_MAILLAGE()

model=AFFE_MODELE(MAILLAGE=mail,
   AFFE=(
      _F(GROUP_MA=('PLAQMA','PLAQES',), PHENOMENE='MECANIQUE', MODELISATION='DKT',),
   ),
)
carelm=AFFE_CARA_ELEM(
   MODELE=model,
   COQUE=_F(GROUP_MA=('PLAQMA','PLAQES'),EPAIS=0.1),
)

MAT01=DEFI_MATERIAU(
   ELAS=_F(E=2.0E11,  NU=0.30, RHO=0.0,),
)

CHMAT=AFFE_MATERIAU(
   MAILLAGE=mail,
   AFFE=_F(TOUT='OUI', MATER=MAT01,),
)

LINST=DEFI_LIST_REEL(VALE=(0.0,1.0))

matcoeff=PROJ_CHAMP(
   PROJECTION='NON', METHODE='COLLOCATION',
   MAILLAGE_1=mail, MAILLAGE_2=mail,
   VIS_A_VIS=_F(GROUP_MA_2='PLAQES',GROUP_MA_1='PLAQMA',),
)

Uimpose = 1.0E-03
un4=1.0/4.0
Relation = {}
Relation[0] = (11,1,8,10,3)
Relation[1] = (12,3,2,10,9)
Relation[2] = (14,8,10,5,6)
Relation[3] = (15,10,9,6,7)

Liaison = {}
for nb in Relation.keys():
   Liaison[nb] = ['N%d' %i for i in Relation[nb] ]

DDLS = {};
DDLS['DX']  = ['DX']*5;  DDLS['DY']  = ['DY']*5;  DDLS['DZ']  = ['DZ']*5
DDLS['DRX'] = ['DRX']*5; DDLS['DRY'] = ['DRY']*5; DDLS['DRZ'] = ['DRZ']*5
COEFFS = [-1.0] +  [un4]*4

# =======================================================
#
#     Avec des DDL de translation
#
# =======================================================
CLPROJ=AFFE_CHAR_MECA(
   MODELE=model,
   DDL_IMPO=(
      _F(GROUP_MA='BORDMA', LIAISON='ENCASTRE',),
      _F(GROUP_MA='BORDM2', DX=Uimpose,DY=Uimpose,DZ=Uimpose,),
   ),
   LIAISON_PROJ=_F(MATR_PROJECTION = matcoeff, DDL=('DX','DY','DZ',),),
   INFO=1,
)

CLMANO=AFFE_CHAR_MECA(
   MODELE=model,
   DDL_IMPO=(
      _F(GROUP_MA='BORDMA',   LIAISON='ENCASTRE',),
      _F(GROUP_MA='BORDM2',   DX=Uimpose,DY=Uimpose,DZ=Uimpose,),
   ),
   LIAISON_DDL=(
      _F(NOEUD = Liaison[0], DDL= DDLS['DX'], COEF_MULT = COEFFS, COEF_IMPO= 0.0 ),
      _F(NOEUD = Liaison[0], DDL= DDLS['DY'], COEF_MULT = COEFFS, COEF_IMPO= 0.0 ),
      _F(NOEUD = Liaison[0], DDL= DDLS['DZ'], COEF_MULT = COEFFS, COEF_IMPO= 0.0 ),

      _F(NOEUD = Liaison[1], DDL= DDLS['DX'], COEF_MULT = COEFFS, COEF_IMPO= 0.0 ),
      _F(NOEUD = Liaison[1], DDL= DDLS['DY'], COEF_MULT = COEFFS, COEF_IMPO= 0.0 ),
      _F(NOEUD = Liaison[1], DDL= DDLS['DZ'], COEF_MULT = COEFFS, COEF_IMPO= 0.0 ),

      _F(NOEUD = Liaison[2], DDL= DDLS['DX'], COEF_MULT = COEFFS, COEF_IMPO= 0.0 ),
      _F(NOEUD = Liaison[2], DDL= DDLS['DY'], COEF_MULT = COEFFS, COEF_IMPO= 0.0 ),
      _F(NOEUD = Liaison[2], DDL= DDLS['DZ'], COEF_MULT = COEFFS, COEF_IMPO= 0.0 ),

      _F(NOEUD = Liaison[3], DDL= DDLS['DX'], COEF_MULT = COEFFS, COEF_IMPO= 0.0 ),
      _F(NOEUD = Liaison[3], DDL= DDLS['DY'], COEF_MULT = COEFFS, COEF_IMPO= 0.0 ),
      _F(NOEUD = Liaison[3], DDL= DDLS['DZ'], COEF_MULT = COEFFS, COEF_IMPO= 0.0 ),
   ),
   INFO=1,
)

RESU1=STAT_NON_LINE(
   MODELE     = model,
   CHAM_MATER = CHMAT,
   CARA_ELEM  = carelm,
   EXCIT=_F(CHARGE=CLPROJ,),
   COMPORTEMENT=_F(RELATION='ELAS'),
   INCREMENT=_F(LIST_INST=LINST,)
)

RESU2=STAT_NON_LINE(
   MODELE     = model,
   CHAM_MATER = CHMAT,
   CARA_ELEM  = carelm,
   EXCIT=_F(CHARGE=CLMANO,),
   COMPORTEMENT=_F(RELATION='ELAS'),
   INCREMENT=_F(LIST_INST=LINST,)
)
#IMPR_RESU(RESU=_F(RESULTAT=RESU1,INST=1.0))
#IMPR_RESU(RESU=_F(RESULTAT=RESU2,INST=1.0))

DEPL1 = CREA_TABLE(RESU=_F(RESULTAT=RESU1, NOM_CHAM='DEPL',INST=1.0,TOUT='OUI',TOUT_CMP='OUI',),)
DEPL2 = CREA_TABLE(RESU=_F(RESULTAT=RESU2, NOM_CHAM='DEPL',INST=1.0,TOUT='OUI',TOUT_CMP='OUI',),)
TDEPL1=CALC_TABLE(TABLE=DEPL1,
   ACTION=(
      _F(OPERATION='EXTR',NOM_PARA=('NOEUD','DX','DY','DZ'),),
      _F(OPERATION='RENOMME',NOM_PARA=('DX','DX1'),),
      _F(OPERATION='RENOMME',NOM_PARA=('DY','DY1'),),
      _F(OPERATION='RENOMME',NOM_PARA=('DZ','DZ1'),),
   ),
)
TDEPL2=CALC_TABLE(TABLE=DEPL2,
   ACTION=(
      _F(OPERATION='EXTR',NOM_PARA=('NOEUD','DX','DY','DZ'),),
      _F(OPERATION='RENOMME',NOM_PARA=('DX','DX2'),),
      _F(OPERATION='RENOMME',NOM_PARA=('DY','DY2'),),
      _F(OPERATION='RENOMME',NOM_PARA=('DZ','DZ2'),),
   ),
)
DIFFDX=FORMULE(NOM_PARA=('DX1','DX2'),VALE='(DX1-DX2)/Uimpose')
DIFFDY=FORMULE(NOM_PARA=('DY1','DY2'),VALE='(DY1-DY2)/Uimpose')
DIFFDZ=FORMULE(NOM_PARA=('DZ1','DZ2'),VALE='(DZ1-DZ2)/Uimpose')
DDEPL=CALC_TABLE(
   TABLE=TDEPL1,
   ACTION=(
      _F(OPERATION='COMB',TABLE=TDEPL2,NOM_PARA='NOEUD'),
      _F(OPERATION='OPER',NOM_PARA='DDX',FORMULE=DIFFDX),
      _F(OPERATION='OPER',NOM_PARA='DDY',FORMULE=DIFFDY),
      _F(OPERATION='OPER',NOM_PARA='DDZ',FORMULE=DIFFDZ),
      _F(OPERATION='SUPPRIME',NOM_PARA=('DX1','DY1','DZ1','DX2','DY2','DZ2',),),
   ),
)
TEST_TABLE(TABLE=DDEPL, TYPE_TEST='MAX',NOM_PARA='DDX',VALE_CALC=0.0,ORDRE_GRANDEUR=1.0,
    VALE_REFE=0.0,VALE_ABS='OUI',CRITERE='ABSOLU',REFERENCE='AUTRE_ASTER')
TEST_TABLE(TABLE=DDEPL, TYPE_TEST='MAX',NOM_PARA='DDY',VALE_CALC=0.0,ORDRE_GRANDEUR=1.0,
    VALE_REFE=0.0,VALE_ABS='OUI',CRITERE='ABSOLU',REFERENCE='AUTRE_ASTER')
TEST_TABLE(TABLE=DDEPL, TYPE_TEST='MAX',NOM_PARA='DDZ',VALE_CALC=0.0,ORDRE_GRANDEUR=1.0,
    VALE_REFE=0.0,VALE_ABS='OUI',CRITERE='ABSOLU',REFERENCE='AUTRE_ASTER')
TEST_TABLE(TABLE=DDEPL, TYPE_TEST='MIN',NOM_PARA='DDX',VALE_CALC=0.0,ORDRE_GRANDEUR=1.0,
    VALE_REFE=0.0,VALE_ABS='OUI',CRITERE='ABSOLU',REFERENCE='AUTRE_ASTER')
TEST_TABLE(TABLE=DDEPL, TYPE_TEST='MIN',NOM_PARA='DDY',VALE_CALC=0.0,ORDRE_GRANDEUR=1.0,
    VALE_REFE=0.0,VALE_ABS='OUI',CRITERE='ABSOLU',REFERENCE='AUTRE_ASTER')
TEST_TABLE(TABLE=DDEPL, TYPE_TEST='MIN',NOM_PARA='DDZ',VALE_CALC=0.0,ORDRE_GRANDEUR=1.0,
    VALE_REFE=0.0,VALE_ABS='OUI',CRITERE='ABSOLU',REFERENCE='AUTRE_ASTER')


SIGM1 = CREA_TABLE(RESU=_F(RESULTAT=RESU1, NOM_CHAM='SIEF_ELGA',
    INST=1.0,TOUT='OUI',TOUT_CMP='OUI',),)
SIGM2 = CREA_TABLE(RESU=_F(RESULTAT=RESU2, NOM_CHAM='SIEF_ELGA',
    INST=1.0,TOUT='OUI',TOUT_CMP='OUI',),)
TSIGM1=CALC_TABLE(TABLE=SIGM1,
   ACTION=(
      _F(OPERATION='EXTR',
         NOM_PARA=('MAILLE','POINT','SOUS_POINT','SIXX','SIYY','SIZZ','SIXY','SIXZ','SIYZ'),),
      _F(OPERATION='RENOMME',NOM_PARA=('SIXX','SIXX1'),),
      _F(OPERATION='RENOMME',NOM_PARA=('SIYY','SIYY1'),),
      _F(OPERATION='RENOMME',NOM_PARA=('SIZZ','SIZZ1'),),
      _F(OPERATION='RENOMME',NOM_PARA=('SIXY','SIXY1'),),
      _F(OPERATION='RENOMME',NOM_PARA=('SIXZ','SIXZ1'),),
      _F(OPERATION='RENOMME',NOM_PARA=('SIYZ','SIYZ1'),),
   ),
)
TSIGM2=CALC_TABLE(TABLE=SIGM2,
   ACTION=(
      _F(OPERATION='EXTR',
         NOM_PARA=('MAILLE','POINT','SOUS_POINT','SIXX','SIYY','SIZZ','SIXY','SIXZ','SIYZ'),),
      _F(OPERATION='RENOMME',NOM_PARA=('SIXX','SIXX2'),),
      _F(OPERATION='RENOMME',NOM_PARA=('SIYY','SIYY2'),),
      _F(OPERATION='RENOMME',NOM_PARA=('SIZZ','SIZZ2'),),
      _F(OPERATION='RENOMME',NOM_PARA=('SIXY','SIXY2'),),
      _F(OPERATION='RENOMME',NOM_PARA=('SIXZ','SIXZ2'),),
      _F(OPERATION='RENOMME',NOM_PARA=('SIYZ','SIYZ2'),),
   ),
)
Sigmaref = 1.0E+06
DIFFSIXX=FORMULE(NOM_PARA=('SIXX1','SIXX2'),VALE='(SIXX1-SIXX2)/Sigmaref')
DIFFSIYY=FORMULE(NOM_PARA=('SIYY1','SIYY2'),VALE='(SIYY1-SIYY2)/Sigmaref')
DIFFSIZZ=FORMULE(NOM_PARA=('SIZZ1','SIZZ2'),VALE='(SIZZ1-SIZZ2)/Sigmaref')
DIFFSIXY=FORMULE(NOM_PARA=('SIXY1','SIXY2'),VALE='(SIXY1-SIXY2)/Sigmaref')
DIFFSIXZ=FORMULE(NOM_PARA=('SIXZ1','SIXZ2'),VALE='(SIXZ1-SIXZ2)/Sigmaref')
DIFFSIYZ=FORMULE(NOM_PARA=('SIYZ1','SIYZ2'),VALE='(SIYZ1-SIYZ2)/Sigmaref')
DSIGM=CALC_TABLE(
   TABLE=TSIGM1,
   ACTION=(
      _F(OPERATION='COMB',TABLE=TSIGM2,NOM_PARA=('MAILLE','POINT','SOUS_POINT',),),
      _F(OPERATION='OPER',NOM_PARA='DSIGXX',FORMULE=DIFFSIXX),
      _F(OPERATION='OPER',NOM_PARA='DSIGYY',FORMULE=DIFFSIYY),
      _F(OPERATION='OPER',NOM_PARA='DSIGZZ',FORMULE=DIFFSIZZ),
      _F(OPERATION='OPER',NOM_PARA='DSIGXY',FORMULE=DIFFSIXY),
      _F(OPERATION='OPER',NOM_PARA='DSIGXZ',FORMULE=DIFFSIXZ),
      _F(OPERATION='OPER',NOM_PARA='DSIGYZ',FORMULE=DIFFSIYZ),
      _F(OPERATION='SUPPRIME',NOM_PARA=('SIXX1','SIYY1','SIZZ1','SIXY1','SIXZ1','SIYZ1',
                                        'SIXX2','SIYY2','SIZZ2','SIXY2','SIXZ2','SIYZ2',),),
   ),
)
TEST_TABLE(TABLE=DSIGM, TYPE_TEST='MAX',NOM_PARA='DSIGXX',VALE_CALC=0.0,ORDRE_GRANDEUR=1.0,
    VALE_REFE=0.0,VALE_ABS='OUI',CRITERE='ABSOLU',REFERENCE='AUTRE_ASTER')
TEST_TABLE(TABLE=DSIGM, TYPE_TEST='MAX',NOM_PARA='DSIGYY',VALE_CALC=0.0,ORDRE_GRANDEUR=1.0,
    VALE_REFE=0.0,VALE_ABS='OUI',CRITERE='ABSOLU',REFERENCE='AUTRE_ASTER')
TEST_TABLE(TABLE=DSIGM, TYPE_TEST='MAX',NOM_PARA='DSIGZZ',VALE_CALC=0.0,ORDRE_GRANDEUR=1.0,
    VALE_REFE=0.0,VALE_ABS='OUI',CRITERE='ABSOLU',REFERENCE='AUTRE_ASTER')
TEST_TABLE(TABLE=DSIGM, TYPE_TEST='MAX',NOM_PARA='DSIGXY',VALE_CALC=0.0,ORDRE_GRANDEUR=1.0,
    VALE_REFE=0.0,VALE_ABS='OUI',CRITERE='ABSOLU',REFERENCE='AUTRE_ASTER')
TEST_TABLE(TABLE=DSIGM, TYPE_TEST='MAX',NOM_PARA='DSIGXZ',VALE_CALC=0.0,ORDRE_GRANDEUR=1.0,
    VALE_REFE=0.0,VALE_ABS='OUI',CRITERE='ABSOLU',REFERENCE='AUTRE_ASTER')
TEST_TABLE(TABLE=DSIGM, TYPE_TEST='MAX',NOM_PARA='DSIGYZ',VALE_CALC=0.0,ORDRE_GRANDEUR=1.0,
    VALE_REFE=0.0,VALE_ABS='OUI',CRITERE='ABSOLU',REFERENCE='AUTRE_ASTER')
TEST_TABLE(TABLE=DSIGM, TYPE_TEST='MIN',NOM_PARA='DSIGXX',VALE_CALC=0.0,ORDRE_GRANDEUR=1.0,
    VALE_REFE=0.0,VALE_ABS='OUI',CRITERE='ABSOLU',REFERENCE='AUTRE_ASTER')
TEST_TABLE(TABLE=DSIGM, TYPE_TEST='MIN',NOM_PARA='DSIGYY',VALE_CALC=0.0,ORDRE_GRANDEUR=1.0,
    VALE_REFE=0.0,VALE_ABS='OUI',CRITERE='ABSOLU',REFERENCE='AUTRE_ASTER')
TEST_TABLE(TABLE=DSIGM, TYPE_TEST='MIN',NOM_PARA='DSIGZZ',VALE_CALC=0.0,ORDRE_GRANDEUR=1.0,
    VALE_REFE=0.0,VALE_ABS='OUI',CRITERE='ABSOLU',REFERENCE='AUTRE_ASTER')
TEST_TABLE(TABLE=DSIGM, TYPE_TEST='MIN',NOM_PARA='DSIGXY',VALE_CALC=0.0,ORDRE_GRANDEUR=1.0,
    VALE_REFE=0.0,VALE_ABS='OUI',CRITERE='ABSOLU',REFERENCE='AUTRE_ASTER')
TEST_TABLE(TABLE=DSIGM, TYPE_TEST='MIN',NOM_PARA='DSIGXZ',VALE_CALC=0.0,ORDRE_GRANDEUR=1.0,
    VALE_REFE=0.0,VALE_ABS='OUI',CRITERE='ABSOLU',REFERENCE='AUTRE_ASTER')
TEST_TABLE(TABLE=DSIGM, TYPE_TEST='MIN',NOM_PARA='DSIGYZ',VALE_CALC=0.0,ORDRE_GRANDEUR=1.0,
    VALE_REFE=0.0,VALE_ABS='OUI',CRITERE='ABSOLU',REFERENCE='AUTRE_ASTER')


# =======================================================
#
#     Avec des DDL de translation + rotation
#
# =======================================================
CLPROJR=AFFE_CHAR_MECA(
   MODELE=model,
   DDL_IMPO=(
      _F(GROUP_MA='BORDMA', LIAISON='ENCASTRE',),
      _F(GROUP_MA='BORDM2', DX=Uimpose,DY=Uimpose,DZ=Uimpose,),
   ),
   LIAISON_PROJ=_F(MATR_PROJECTION = matcoeff, DDL=('DX','DY','DZ','DRZ','DRX'),),
   INFO=1,
)

CLMANOR=AFFE_CHAR_MECA(
   MODELE=model,
   DDL_IMPO=(
      _F(GROUP_MA='BORDMA',   LIAISON='ENCASTRE',),
      _F(GROUP_MA='BORDM2',   DX=Uimpose,DY=Uimpose,DZ=Uimpose,),
   ),
   LIAISON_DDL=(
      _F(NOEUD = Liaison[0], DDL= DDLS['DX'],  COEF_MULT = COEFFS, COEF_IMPO= 0.0 ),
      _F(NOEUD = Liaison[0], DDL= DDLS['DY'],  COEF_MULT = COEFFS, COEF_IMPO= 0.0 ),
      _F(NOEUD = Liaison[0], DDL= DDLS['DZ'],  COEF_MULT = COEFFS, COEF_IMPO= 0.0 ),
      _F(NOEUD = Liaison[0], DDL= DDLS['DRZ'], COEF_MULT = COEFFS, COEF_IMPO= 0.0 ),
      _F(NOEUD = Liaison[0], DDL= DDLS['DRX'], COEF_MULT = COEFFS, COEF_IMPO= 0.0 ),

      _F(NOEUD = Liaison[1], DDL= DDLS['DX'],  COEF_MULT = COEFFS, COEF_IMPO= 0.0 ),
      _F(NOEUD = Liaison[1], DDL= DDLS['DY'],  COEF_MULT = COEFFS, COEF_IMPO= 0.0 ),
      _F(NOEUD = Liaison[1], DDL= DDLS['DZ'],  COEF_MULT = COEFFS, COEF_IMPO= 0.0 ),
      _F(NOEUD = Liaison[1], DDL= DDLS['DRZ'], COEF_MULT = COEFFS, COEF_IMPO= 0.0 ),
      _F(NOEUD = Liaison[1], DDL= DDLS['DRX'], COEF_MULT = COEFFS, COEF_IMPO= 0.0 ),

      _F(NOEUD = Liaison[2], DDL= DDLS['DX'],  COEF_MULT = COEFFS, COEF_IMPO= 0.0 ),
      _F(NOEUD = Liaison[2], DDL= DDLS['DY'],  COEF_MULT = COEFFS, COEF_IMPO= 0.0 ),
      _F(NOEUD = Liaison[2], DDL= DDLS['DZ'],  COEF_MULT = COEFFS, COEF_IMPO= 0.0 ),
      _F(NOEUD = Liaison[2], DDL= DDLS['DRZ'], COEF_MULT = COEFFS, COEF_IMPO= 0.0 ),
      _F(NOEUD = Liaison[2], DDL= DDLS['DRX'], COEF_MULT = COEFFS, COEF_IMPO= 0.0 ),

      _F(NOEUD = Liaison[3], DDL= DDLS['DX'],  COEF_MULT = COEFFS, COEF_IMPO= 0.0 ),
      _F(NOEUD = Liaison[3], DDL= DDLS['DY'],  COEF_MULT = COEFFS, COEF_IMPO= 0.0 ),
      _F(NOEUD = Liaison[3], DDL= DDLS['DZ'],  COEF_MULT = COEFFS, COEF_IMPO= 0.0 ),
      _F(NOEUD = Liaison[3], DDL= DDLS['DRZ'], COEF_MULT = COEFFS, COEF_IMPO= 0.0 ),
      _F(NOEUD = Liaison[3], DDL= DDLS['DRX'], COEF_MULT = COEFFS, COEF_IMPO= 0.0 ),
   ),
   INFO=1,
)

RESUR1=STAT_NON_LINE(
   MODELE     = model,
   CHAM_MATER = CHMAT,
   CARA_ELEM  = carelm,
   EXCIT=_F(CHARGE=CLPROJR,),
   COMPORTEMENT=_F(RELATION='ELAS'),
   INCREMENT=_F(LIST_INST=LINST,)
)

RESUR2=STAT_NON_LINE(
   MODELE     = model,
   CHAM_MATER = CHMAT,
   CARA_ELEM  = carelm,
   EXCIT=_F(CHARGE=CLMANOR,),
   COMPORTEMENT=_F(RELATION='ELAS'),
   INCREMENT=_F(LIST_INST=LINST,)
)
#IMPR_RESU(RESU=_F(RESULTAT=RESU1,INST=1.0))
#IMPR_RESU(RESU=_F(RESULTAT=RESU2,INST=1.0))

DEPLR1 = CREA_TABLE(RESU=_F(RESULTAT=RESUR1, NOM_CHAM='DEPL',INST=1.0,TOUT='OUI',TOUT_CMP='OUI',),)
DEPLR2 = CREA_TABLE(RESU=_F(RESULTAT=RESUR2, NOM_CHAM='DEPL',INST=1.0,TOUT='OUI',TOUT_CMP='OUI',),)
TDEPLR1=CALC_TABLE(TABLE=DEPLR1,
   ACTION=(
      _F(OPERATION='EXTR',NOM_PARA=('NOEUD','DX','DY','DZ'),),
      _F(OPERATION='RENOMME',NOM_PARA=('DX','DX1'),),
      _F(OPERATION='RENOMME',NOM_PARA=('DY','DY1'),),
      _F(OPERATION='RENOMME',NOM_PARA=('DZ','DZ1'),),
   ),
)
TDEPLR2=CALC_TABLE(TABLE=DEPLR2,
   ACTION=(
      _F(OPERATION='EXTR',NOM_PARA=('NOEUD','DX','DY','DZ'),),
      _F(OPERATION='RENOMME',NOM_PARA=('DX','DX2'),),
      _F(OPERATION='RENOMME',NOM_PARA=('DY','DY2'),),
      _F(OPERATION='RENOMME',NOM_PARA=('DZ','DZ2'),),
   ),
)
DDEPLR=CALC_TABLE(
   TABLE=TDEPLR1,
   ACTION=(
      _F(OPERATION='COMB',TABLE=TDEPLR2,NOM_PARA='NOEUD'),
      _F(OPERATION='OPER',NOM_PARA='DDX',FORMULE=DIFFDX),
      _F(OPERATION='OPER',NOM_PARA='DDY',FORMULE=DIFFDY),
      _F(OPERATION='OPER',NOM_PARA='DDZ',FORMULE=DIFFDZ),
      _F(OPERATION='SUPPRIME',NOM_PARA=('DX1','DY1','DZ1','DX2','DY2','DZ2',),),
   ),
)
TEST_TABLE(TABLE=DDEPLR, TYPE_TEST='MAX',NOM_PARA='DDX',VALE_CALC=0.0,ORDRE_GRANDEUR=1.0,
    VALE_REFE=0.0,VALE_ABS='OUI',CRITERE='ABSOLU',REFERENCE='AUTRE_ASTER')
TEST_TABLE(TABLE=DDEPLR, TYPE_TEST='MAX',NOM_PARA='DDY',VALE_CALC=0.0,ORDRE_GRANDEUR=1.0,
    VALE_REFE=0.0,VALE_ABS='OUI',CRITERE='ABSOLU',REFERENCE='AUTRE_ASTER')
TEST_TABLE(TABLE=DDEPLR, TYPE_TEST='MAX',NOM_PARA='DDZ',VALE_CALC=0.0,ORDRE_GRANDEUR=1.0,
    VALE_REFE=0.0,VALE_ABS='OUI',CRITERE='ABSOLU',REFERENCE='AUTRE_ASTER')
TEST_TABLE(TABLE=DDEPLR, TYPE_TEST='MIN',NOM_PARA='DDX',VALE_CALC=0.0,ORDRE_GRANDEUR=1.0,
    VALE_REFE=0.0,VALE_ABS='OUI',CRITERE='ABSOLU',REFERENCE='AUTRE_ASTER')
TEST_TABLE(TABLE=DDEPLR, TYPE_TEST='MIN',NOM_PARA='DDY',VALE_CALC=0.0,ORDRE_GRANDEUR=1.0,
    VALE_REFE=0.0,VALE_ABS='OUI',CRITERE='ABSOLU',REFERENCE='AUTRE_ASTER')
TEST_TABLE(TABLE=DDEPLR, TYPE_TEST='MIN',NOM_PARA='DDZ',VALE_CALC=0.0,ORDRE_GRANDEUR=1.0,
    VALE_REFE=0.0,VALE_ABS='OUI',CRITERE='ABSOLU',REFERENCE='AUTRE_ASTER')

SIGMR1 = CREA_TABLE(RESU=_F(RESULTAT=RESUR1, NOM_CHAM='SIEF_ELGA',
    INST=1.0,TOUT='OUI',TOUT_CMP='OUI',),)
SIGMR2 = CREA_TABLE(RESU=_F(RESULTAT=RESUR2, NOM_CHAM='SIEF_ELGA',
    INST=1.0,TOUT='OUI',TOUT_CMP='OUI',),)
TSIGMR1=CALC_TABLE(TABLE=SIGMR1,
   ACTION=(
      _F(OPERATION='EXTR',
         NOM_PARA=('MAILLE','POINT','SOUS_POINT','SIXX','SIYY','SIZZ','SIXY','SIXZ','SIYZ'),),
      _F(OPERATION='RENOMME',NOM_PARA=('SIXX','SIXX1'),),
      _F(OPERATION='RENOMME',NOM_PARA=('SIYY','SIYY1'),),
      _F(OPERATION='RENOMME',NOM_PARA=('SIZZ','SIZZ1'),),
      _F(OPERATION='RENOMME',NOM_PARA=('SIXY','SIXY1'),),
      _F(OPERATION='RENOMME',NOM_PARA=('SIXZ','SIXZ1'),),
      _F(OPERATION='RENOMME',NOM_PARA=('SIYZ','SIYZ1'),),
   ),
)
TSIGMR2=CALC_TABLE(TABLE=SIGMR2,
   ACTION=(
      _F(OPERATION='EXTR',
         NOM_PARA=('MAILLE','POINT','SOUS_POINT','SIXX','SIYY','SIZZ','SIXY','SIXZ','SIYZ'),),
      _F(OPERATION='RENOMME',NOM_PARA=('SIXX','SIXX2'),),
      _F(OPERATION='RENOMME',NOM_PARA=('SIYY','SIYY2'),),
      _F(OPERATION='RENOMME',NOM_PARA=('SIZZ','SIZZ2'),),
      _F(OPERATION='RENOMME',NOM_PARA=('SIXY','SIXY2'),),
      _F(OPERATION='RENOMME',NOM_PARA=('SIXZ','SIXZ2'),),
      _F(OPERATION='RENOMME',NOM_PARA=('SIYZ','SIYZ2'),),
   ),
)
Sigmaref = 1.0E+06
DSIGMR=CALC_TABLE(
   TABLE=TSIGMR1,
   ACTION=(
      _F(OPERATION='COMB',TABLE=TSIGMR2,NOM_PARA=('MAILLE','POINT','SOUS_POINT',),),
      _F(OPERATION='OPER',NOM_PARA='DSIGXX',FORMULE=DIFFSIXX),
      _F(OPERATION='OPER',NOM_PARA='DSIGYY',FORMULE=DIFFSIYY),
      _F(OPERATION='OPER',NOM_PARA='DSIGZZ',FORMULE=DIFFSIZZ),
      _F(OPERATION='OPER',NOM_PARA='DSIGXY',FORMULE=DIFFSIXY),
      _F(OPERATION='OPER',NOM_PARA='DSIGXZ',FORMULE=DIFFSIXZ),
      _F(OPERATION='OPER',NOM_PARA='DSIGYZ',FORMULE=DIFFSIYZ),
      _F(OPERATION='SUPPRIME',NOM_PARA=('SIXX1','SIYY1','SIZZ1','SIXY1','SIXZ1','SIYZ1',
                                        'SIXX2','SIYY2','SIZZ2','SIXY2','SIXZ2','SIYZ2',),),
   ),
)
TEST_TABLE(TABLE=DSIGMR, TYPE_TEST='MAX',NOM_PARA='DSIGXX',VALE_CALC=0.0,ORDRE_GRANDEUR=1.0,
    VALE_REFE=0.0,VALE_ABS='OUI',CRITERE='ABSOLU',REFERENCE='AUTRE_ASTER')
TEST_TABLE(TABLE=DSIGMR, TYPE_TEST='MAX',NOM_PARA='DSIGYY',VALE_CALC=0.0,ORDRE_GRANDEUR=1.0,
    VALE_REFE=0.0,VALE_ABS='OUI',CRITERE='ABSOLU',REFERENCE='AUTRE_ASTER')
TEST_TABLE(TABLE=DSIGMR, TYPE_TEST='MAX',NOM_PARA='DSIGZZ',VALE_CALC=0.0,ORDRE_GRANDEUR=1.0,
    VALE_REFE=0.0,VALE_ABS='OUI',CRITERE='ABSOLU',REFERENCE='AUTRE_ASTER')
TEST_TABLE(TABLE=DSIGMR, TYPE_TEST='MAX',NOM_PARA='DSIGXY',VALE_CALC=0.0,ORDRE_GRANDEUR=1.0,
    VALE_REFE=0.0,VALE_ABS='OUI',CRITERE='ABSOLU',REFERENCE='AUTRE_ASTER')
TEST_TABLE(TABLE=DSIGMR, TYPE_TEST='MAX',NOM_PARA='DSIGXZ',VALE_CALC=0.0,ORDRE_GRANDEUR=1.0,
    VALE_REFE=0.0,VALE_ABS='OUI',CRITERE='ABSOLU',REFERENCE='AUTRE_ASTER')
TEST_TABLE(TABLE=DSIGMR, TYPE_TEST='MAX',NOM_PARA='DSIGYZ',VALE_CALC=0.0,ORDRE_GRANDEUR=1.0,
    VALE_REFE=0.0,VALE_ABS='OUI',CRITERE='ABSOLU',REFERENCE='AUTRE_ASTER')
TEST_TABLE(TABLE=DSIGMR, TYPE_TEST='MIN',NOM_PARA='DSIGXX',VALE_CALC=0.0,ORDRE_GRANDEUR=1.0,
    VALE_REFE=0.0,VALE_ABS='OUI',CRITERE='ABSOLU',REFERENCE='AUTRE_ASTER')
TEST_TABLE(TABLE=DSIGMR, TYPE_TEST='MIN',NOM_PARA='DSIGYY',VALE_CALC=0.0,ORDRE_GRANDEUR=1.0,
    VALE_REFE=0.0,VALE_ABS='OUI',CRITERE='ABSOLU',REFERENCE='AUTRE_ASTER')
TEST_TABLE(TABLE=DSIGMR, TYPE_TEST='MIN',NOM_PARA='DSIGZZ',VALE_CALC=0.0,ORDRE_GRANDEUR=1.0,
    VALE_REFE=0.0,VALE_ABS='OUI',CRITERE='ABSOLU',REFERENCE='AUTRE_ASTER')
TEST_TABLE(TABLE=DSIGMR, TYPE_TEST='MIN',NOM_PARA='DSIGXY',VALE_CALC=0.0,ORDRE_GRANDEUR=1.0,
    VALE_REFE=0.0,VALE_ABS='OUI',CRITERE='ABSOLU',REFERENCE='AUTRE_ASTER')
TEST_TABLE(TABLE=DSIGMR, TYPE_TEST='MIN',NOM_PARA='DSIGXZ',VALE_CALC=0.0,ORDRE_GRANDEUR=1.0,
    VALE_REFE=0.0,VALE_ABS='OUI',CRITERE='ABSOLU',REFERENCE='AUTRE_ASTER')
TEST_TABLE(TABLE=DSIGMR, TYPE_TEST='MIN',NOM_PARA='DSIGYZ',VALE_CALC=0.0,ORDRE_GRANDEUR=1.0,
    VALE_REFE=0.0,VALE_ABS='OUI',CRITERE='ABSOLU',REFERENCE='AUTRE_ASTER')


# =======================================================
#
#     Avec des DDL de translation + EXCENTREMENT
#
# =======================================================
CLPROJE=AFFE_CHAR_MECA(
   MODELE=model,
   DDL_IMPO=(
      _F(GROUP_MA='BORDMA', LIAISON='ENCASTRE',),
      _F(GROUP_MA='BORDM2', DX=Uimpose,DY=Uimpose,DZ=Uimpose,),
   ),
   LIAISON_PROJ=_F(MATR_PROJECTION = matcoeff, DDL=('DX','DY','DZ',),
                   TYPE='EXCENTREMENT'),
   INFO=1,
)

coord= {
1    :  (  0.000E+00, -1.000E+00,  0.000E+00 ),
2    :  (  0.000E+00,  1.000E+00,  0.000E+00 ),
3    :  (  0.000E+00,  0.000E+00,  0.000E+00 ),
5    :  (  2.000E+00, -1.000E+00,  0.000E+00 ),
6    :  (  2.000E+00,  0.000E+00,  0.000E+00 ),
7    :  (  2.000E+00,  1.000E+00,  0.000E+00 ),
8    :  (  1.000E+00, -1.000E+00,  0.000E+00 ),
9    :  (  1.000E+00,  1.000E+00,  0.000E+00 ),
10   :  (  1.000E+00,  0.000E+00,  0.000E+00 ),
11   :  (  5.000E-01, -5.000E-01,  0.050E+00 ),
12   :  (  5.000E-01,  5.000E-01,  0.050E+00 ),
14   :  (  1.500E+00, -5.000E-01,  0.050E+00 ),
15   :  (  1.500E+00,  5.000E-01,  0.050E+00 ),
}

Liaison = {}
for nb in Relation.keys():
   Liaison[nb]  = ['N%d' %i for i in Relation[nb] ]
   Liaison[nb] += ['N%d' %i for i in Relation[nb][1:] ]
   Liaison[nb] += ['N%d' %i for i in Relation[nb][1:] ]

DDLS['DX']  = ['DX']*5 + ['DRY']*4 + ['DRZ']*4
DDLS['DY']  = ['DY']*5 + ['DRX']*4 + ['DRZ']*4
DDLS['DZ']  = ['DZ']*5 + ['DRX']*4 + ['DRY']*4

COEFFS  = {}
for nb in Relation.keys():
   COEFFS[nb] = {}
   COEFFS[nb]['DX']  = [-1.0] +  [un4]*4
   COEFFS[nb]['DX'] += [  un4*(coord[Relation[nb][0]][2] - coord[i][2])  for i in Relation[nb][1:] ]
   COEFFS[nb]['DX'] += [ -un4*(coord[Relation[nb][0]][1] - coord[i][1])  for i in Relation[nb][1:] ]
   COEFFS[nb]['DY']  = [-1.0] +  [un4]*4
   COEFFS[nb]['DY'] += [ -un4*(coord[Relation[nb][0]][2] - coord[i][2])  for i in Relation[nb][1:] ]
   COEFFS[nb]['DY'] += [  un4*(coord[Relation[nb][0]][0] - coord[i][0])  for i in Relation[nb][1:] ]
   COEFFS[nb]['DZ']  = [-1.0] +  [un4]*4
   COEFFS[nb]['DZ'] += [  un4*(coord[Relation[nb][0]][1] - coord[i][1])  for i in Relation[nb][1:] ]
   COEFFS[nb]['DZ'] += [ -un4*(coord[Relation[nb][0]][0] - coord[i][0])  for i in Relation[nb][1:] ]


CLMANOE=AFFE_CHAR_MECA(
   MODELE=model,
   DDL_IMPO=(
      _F(GROUP_MA='BORDMA',   LIAISON='ENCASTRE',),
      _F(GROUP_MA='BORDM2',   DX=Uimpose,DY=Uimpose,DZ=Uimpose,),
   ),
   LIAISON_DDL=(
      _F(NOEUD = Liaison[0], DDL= DDLS['DX'],  COEF_MULT = COEFFS[0]['DX'], COEF_IMPO= 0.0 ),
      _F(NOEUD = Liaison[0], DDL= DDLS['DY'],  COEF_MULT = COEFFS[0]['DY'], COEF_IMPO= 0.0 ),
      _F(NOEUD = Liaison[0], DDL= DDLS['DZ'],  COEF_MULT = COEFFS[0]['DZ'], COEF_IMPO= 0.0 ),

      _F(NOEUD = Liaison[1], DDL= DDLS['DX'],  COEF_MULT = COEFFS[1]['DX'], COEF_IMPO= 0.0 ),
      _F(NOEUD = Liaison[1], DDL= DDLS['DY'],  COEF_MULT = COEFFS[1]['DY'], COEF_IMPO= 0.0 ),
      _F(NOEUD = Liaison[1], DDL= DDLS['DZ'],  COEF_MULT = COEFFS[1]['DZ'], COEF_IMPO= 0.0 ),

      _F(NOEUD = Liaison[2], DDL= DDLS['DX'],  COEF_MULT = COEFFS[2]['DX'], COEF_IMPO= 0.0 ),
      _F(NOEUD = Liaison[2], DDL= DDLS['DY'],  COEF_MULT = COEFFS[2]['DY'], COEF_IMPO= 0.0 ),
      _F(NOEUD = Liaison[2], DDL= DDLS['DZ'],  COEF_MULT = COEFFS[2]['DZ'], COEF_IMPO= 0.0 ),

      _F(NOEUD = Liaison[3], DDL= DDLS['DX'],  COEF_MULT = COEFFS[3]['DX'], COEF_IMPO= 0.0 ),
      _F(NOEUD = Liaison[3], DDL= DDLS['DY'],  COEF_MULT = COEFFS[3]['DY'], COEF_IMPO= 0.0 ),
      _F(NOEUD = Liaison[3], DDL= DDLS['DZ'],  COEF_MULT = COEFFS[3]['DZ'], COEF_IMPO= 0.0 ),
   ),
   INFO=1,
)


RESUE1=STAT_NON_LINE(
   MODELE     = model,
   CHAM_MATER = CHMAT,
   CARA_ELEM  = carelm,
   EXCIT=_F(CHARGE=CLPROJE,),
   COMPORTEMENT=_F(RELATION='ELAS'),
   INCREMENT=_F(LIST_INST=LINST,)
)

RESUE2=STAT_NON_LINE(
   MODELE     = model,
   CHAM_MATER = CHMAT,
   CARA_ELEM  = carelm,
   EXCIT=_F(CHARGE=CLMANOE,),
   COMPORTEMENT=_F(RELATION='ELAS'),
   INCREMENT=_F(LIST_INST=LINST,)
)
#IMPR_RESU(RESU=_F(RESULTAT=RESU1,INST=1.0))
#IMPR_RESU(RESU=_F(RESULTAT=RESU2,INST=1.0))

DEPLE1 = CREA_TABLE(RESU=_F(RESULTAT=RESUE1, NOM_CHAM='DEPL',INST=1.0,TOUT='OUI',TOUT_CMP='OUI',),)
DEPLE2 = CREA_TABLE(RESU=_F(RESULTAT=RESUE2, NOM_CHAM='DEPL',INST=1.0,TOUT='OUI',TOUT_CMP='OUI',),)
TDEPLE1=CALC_TABLE(TABLE=DEPLE1,
   ACTION=(
      _F(OPERATION='EXTR',NOM_PARA=('NOEUD','DX','DY','DZ'),),
      _F(OPERATION='RENOMME',NOM_PARA=('DX','DX1'),),
      _F(OPERATION='RENOMME',NOM_PARA=('DY','DY1'),),
      _F(OPERATION='RENOMME',NOM_PARA=('DZ','DZ1'),),
   ),
)
TDEPLE2=CALC_TABLE(TABLE=DEPLE2,
   ACTION=(
      _F(OPERATION='EXTR',NOM_PARA=('NOEUD','DX','DY','DZ'),),
      _F(OPERATION='RENOMME',NOM_PARA=('DX','DX2'),),
      _F(OPERATION='RENOMME',NOM_PARA=('DY','DY2'),),
      _F(OPERATION='RENOMME',NOM_PARA=('DZ','DZ2'),),
   ),
)
DDEPLE=CALC_TABLE(
   TABLE=TDEPLE1,
   ACTION=(
      _F(OPERATION='COMB',TABLE=TDEPLE2,NOM_PARA='NOEUD'),
      _F(OPERATION='OPER',NOM_PARA='DDX',FORMULE=DIFFDX),
      _F(OPERATION='OPER',NOM_PARA='DDY',FORMULE=DIFFDY),
      _F(OPERATION='OPER',NOM_PARA='DDZ',FORMULE=DIFFDZ),
      _F(OPERATION='SUPPRIME',NOM_PARA=('DX1','DY1','DZ1','DX2','DY2','DZ2',),),
   ),
)
TEST_TABLE(TABLE=DDEPLE, TYPE_TEST='MAX',NOM_PARA='DDX',VALE_CALC=0.0,ORDRE_GRANDEUR=1.0,
    VALE_REFE=0.0,VALE_ABS='OUI',CRITERE='ABSOLU',REFERENCE='AUTRE_ASTER')
TEST_TABLE(TABLE=DDEPLE, TYPE_TEST='MAX',NOM_PARA='DDY',VALE_CALC=0.0,ORDRE_GRANDEUR=1.0,
    VALE_REFE=0.0,VALE_ABS='OUI',CRITERE='ABSOLU',REFERENCE='AUTRE_ASTER')
TEST_TABLE(TABLE=DDEPLE, TYPE_TEST='MAX',NOM_PARA='DDZ',VALE_CALC=0.0,ORDRE_GRANDEUR=1.0,
    VALE_REFE=0.0,VALE_ABS='OUI',CRITERE='ABSOLU',REFERENCE='AUTRE_ASTER')
TEST_TABLE(TABLE=DDEPLE, TYPE_TEST='MIN',NOM_PARA='DDX',VALE_CALC=0.0,ORDRE_GRANDEUR=1.0,
    VALE_REFE=0.0,VALE_ABS='OUI',CRITERE='ABSOLU',REFERENCE='AUTRE_ASTER')
TEST_TABLE(TABLE=DDEPLE, TYPE_TEST='MIN',NOM_PARA='DDY',VALE_CALC=0.0,ORDRE_GRANDEUR=1.0,
    VALE_REFE=0.0,VALE_ABS='OUI',CRITERE='ABSOLU',REFERENCE='AUTRE_ASTER')
TEST_TABLE(TABLE=DDEPLE, TYPE_TEST='MIN',NOM_PARA='DDZ',VALE_CALC=0.0,ORDRE_GRANDEUR=1.0,
    VALE_REFE=0.0,VALE_ABS='OUI',CRITERE='ABSOLU',REFERENCE='AUTRE_ASTER')


SIGME1 = CREA_TABLE(RESU=_F(RESULTAT=RESUE1, NOM_CHAM='SIEF_ELGA',
    INST=1.0,TOUT='OUI',TOUT_CMP='OUI',),)
SIGME2 = CREA_TABLE(RESU=_F(RESULTAT=RESUE2, NOM_CHAM='SIEF_ELGA',
    INST=1.0,TOUT='OUI',TOUT_CMP='OUI',),)
TSIGME1=CALC_TABLE(TABLE=SIGME1,
   ACTION=(
      _F(OPERATION='EXTR',
         NOM_PARA=('MAILLE','POINT','SOUS_POINT','SIXX','SIYY','SIZZ','SIXY','SIXZ','SIYZ'),),
      _F(OPERATION='RENOMME',NOM_PARA=('SIXX','SIXX1'),),
      _F(OPERATION='RENOMME',NOM_PARA=('SIYY','SIYY1'),),
      _F(OPERATION='RENOMME',NOM_PARA=('SIZZ','SIZZ1'),),
      _F(OPERATION='RENOMME',NOM_PARA=('SIXY','SIXY1'),),
      _F(OPERATION='RENOMME',NOM_PARA=('SIXZ','SIXZ1'),),
      _F(OPERATION='RENOMME',NOM_PARA=('SIYZ','SIYZ1'),),
   ),
)
TSIGME2=CALC_TABLE(TABLE=SIGME2,
   ACTION=(
      _F(OPERATION='EXTR',
         NOM_PARA=('MAILLE','POINT','SOUS_POINT','SIXX','SIYY','SIZZ','SIXY','SIXZ','SIYZ'),),
      _F(OPERATION='RENOMME',NOM_PARA=('SIXX','SIXX2'),),
      _F(OPERATION='RENOMME',NOM_PARA=('SIYY','SIYY2'),),
      _F(OPERATION='RENOMME',NOM_PARA=('SIZZ','SIZZ2'),),
      _F(OPERATION='RENOMME',NOM_PARA=('SIXY','SIXY2'),),
      _F(OPERATION='RENOMME',NOM_PARA=('SIXZ','SIXZ2'),),
      _F(OPERATION='RENOMME',NOM_PARA=('SIYZ','SIYZ2'),),
   ),
)
Sigmaref = 1.0E+06
DSIGME=CALC_TABLE(
   TABLE=TSIGME1,
   ACTION=(
      _F(OPERATION='COMB',TABLE=TSIGME2,NOM_PARA=('MAILLE','POINT','SOUS_POINT',),),
      _F(OPERATION='OPER',NOM_PARA='DSIGXX',FORMULE=DIFFSIXX),
      _F(OPERATION='OPER',NOM_PARA='DSIGYY',FORMULE=DIFFSIYY),
      _F(OPERATION='OPER',NOM_PARA='DSIGZZ',FORMULE=DIFFSIZZ),
      _F(OPERATION='OPER',NOM_PARA='DSIGXY',FORMULE=DIFFSIXY),
      _F(OPERATION='OPER',NOM_PARA='DSIGXZ',FORMULE=DIFFSIXZ),
      _F(OPERATION='OPER',NOM_PARA='DSIGYZ',FORMULE=DIFFSIYZ),
      _F(OPERATION='SUPPRIME',NOM_PARA=('SIXX1','SIYY1','SIZZ1','SIXY1','SIXZ1','SIYZ1',
                                        'SIXX2','SIYY2','SIZZ2','SIXY2','SIXZ2','SIYZ2',),),
   ),
)
TEST_TABLE(TABLE=DSIGME, TYPE_TEST='MAX',NOM_PARA='DSIGXX',VALE_CALC=0.0,ORDRE_GRANDEUR=1.0,
    VALE_REFE=0.0,VALE_ABS='OUI',CRITERE='ABSOLU',REFERENCE='AUTRE_ASTER')
TEST_TABLE(TABLE=DSIGME, TYPE_TEST='MAX',NOM_PARA='DSIGYY',VALE_CALC=0.0,ORDRE_GRANDEUR=1.0,
    VALE_REFE=0.0,VALE_ABS='OUI',CRITERE='ABSOLU',REFERENCE='AUTRE_ASTER')
TEST_TABLE(TABLE=DSIGME, TYPE_TEST='MAX',NOM_PARA='DSIGZZ',VALE_CALC=0.0,ORDRE_GRANDEUR=1.0,
    VALE_REFE=0.0,VALE_ABS='OUI',CRITERE='ABSOLU',REFERENCE='AUTRE_ASTER')
TEST_TABLE(TABLE=DSIGME, TYPE_TEST='MAX',NOM_PARA='DSIGXY',VALE_CALC=0.0,ORDRE_GRANDEUR=1.0,
    VALE_REFE=0.0,VALE_ABS='OUI',CRITERE='ABSOLU',REFERENCE='AUTRE_ASTER')
TEST_TABLE(TABLE=DSIGME, TYPE_TEST='MAX',NOM_PARA='DSIGXZ',VALE_CALC=0.0,ORDRE_GRANDEUR=1.0,
    VALE_REFE=0.0,VALE_ABS='OUI',CRITERE='ABSOLU',REFERENCE='AUTRE_ASTER')
TEST_TABLE(TABLE=DSIGME, TYPE_TEST='MAX',NOM_PARA='DSIGYZ',VALE_CALC=0.0,ORDRE_GRANDEUR=1.0,
    VALE_REFE=0.0,VALE_ABS='OUI',CRITERE='ABSOLU',REFERENCE='AUTRE_ASTER')
TEST_TABLE(TABLE=DSIGME, TYPE_TEST='MIN',NOM_PARA='DSIGXX',VALE_CALC=0.0,ORDRE_GRANDEUR=1.0,
    VALE_REFE=0.0,VALE_ABS='OUI',CRITERE='ABSOLU',REFERENCE='AUTRE_ASTER')
TEST_TABLE(TABLE=DSIGME, TYPE_TEST='MIN',NOM_PARA='DSIGYY',VALE_CALC=0.0,ORDRE_GRANDEUR=1.0,
    VALE_REFE=0.0,VALE_ABS='OUI',CRITERE='ABSOLU',REFERENCE='AUTRE_ASTER')
TEST_TABLE(TABLE=DSIGME, TYPE_TEST='MIN',NOM_PARA='DSIGZZ',VALE_CALC=0.0,ORDRE_GRANDEUR=1.0,
    VALE_REFE=0.0,VALE_ABS='OUI',CRITERE='ABSOLU',REFERENCE='AUTRE_ASTER')
TEST_TABLE(TABLE=DSIGME, TYPE_TEST='MIN',NOM_PARA='DSIGXY',VALE_CALC=0.0,ORDRE_GRANDEUR=1.0,
    VALE_REFE=0.0,VALE_ABS='OUI',CRITERE='ABSOLU',REFERENCE='AUTRE_ASTER')
TEST_TABLE(TABLE=DSIGME, TYPE_TEST='MIN',NOM_PARA='DSIGXZ',VALE_CALC=0.0,ORDRE_GRANDEUR=1.0,
    VALE_REFE=0.0,VALE_ABS='OUI',CRITERE='ABSOLU',REFERENCE='AUTRE_ASTER')
TEST_TABLE(TABLE=DSIGME, TYPE_TEST='MIN',NOM_PARA='DSIGYZ',VALE_CALC=0.0,ORDRE_GRANDEUR=1.0,
    VALE_REFE=0.0,VALE_ABS='OUI',CRITERE='ABSOLU',REFERENCE='AUTRE_ASTER')


FIN()
