# MODIF  DATE 10/10/2012   AUTEUR COURTOIS M.COURTOIS 
# TITRE LIRE_FONCTION D'UN SPECTRE D'OSCILLATEUR
# zzzz102b.para = tps_job 60 mem_job 256Mo ncpus 1 liste_test R
#            CONFIGURATION MANAGEMENT OF EDF VERSION
# ======================================================================
# COPYRIGHT (C) 1991 - 2012  EDF R&D                  WWW.CODE-ASTER.ORG
# THIS PROGRAM IS FREE SOFTWARE; YOU CAN REDISTRIBUTE IT AND/OR MODIFY
# IT UNDER THE TERMS OF THE GNU GENERAL PUBLIC LICENSE AS PUBLISHED BY
# THE FREE SOFTWARE FOUNDATION; EITHER VERSION 2 OF THE LICENSE, OR
# (AT YOUR OPTION) ANY LATER VERSION.
#
# THIS PROGRAM IS DISTRIBUTED IN THE HOPE THAT IT WILL BE USEFUL, BUT
# WITHOUT ANY WARRANTY; WITHOUT EVEN THE IMPLIED WARRANTY OF
# MERCHANTABILITY OR FITNESS FOR A PARTICULAR PURPOSE. SEE THE GNU
# GENERAL PUBLIC LICENSE FOR MORE DETAILS.
#
# YOU SHOULD HAVE RECEIVED A COPY OF THE GNU GENERAL PUBLIC LICENSE
# ALONG WITH THIS PROGRAM; IF NOT, WRITE TO EDF R&D CODE_ASTER,
#    1 AVENUE DU GENERAL DE GAULLE, 92141 CLAMART CEDEX, FRANCE.
# ======================================================================


DEBUT( CODE=_F(  NOM = 'ZZZZ102B',NIV_PUB_WEB='INTERNET'),DEBUG=_F(SDVERI='OUI'))

#=======================================================================
#
#          LIRE_FONCTION D'UN SPECTRE D'OSCILLATEUR FORMAT LIBRE
#
#=======================================================================

SPO=LIRE_FONCTION(     UNITE=20,
                       TYPE='NAPPE',
                       TITRE='SPECTRE OSCILLATEUR FORMAT LIBRE',
                       INTERPOL='LIN',
                       PROL_DROITE='LINEAIRE',
                       PROL_GAUCHE='CONSTANT',
                       INTERPOL_FONC='LIN',
                       PROL_DROITE_FONC='EXCLU',
                       PROL_GAUCHE_FONC='EXCLU',
                       NOM_RESU      ='ACCE',
                       NOM_PARA      ='AMOR',
                       NOM_PARA_FONC ='FREQ',
                       INDIC_PARA    =[1,1],
                       INDIC_ABSCISSE=[2,1],
                       DEFI_FONCTION =( _F(INDIC_RESU=[2,2]),
                                        _F(INDIC_RESU=[2,3]),
                                        _F(INDIC_RESU=[2,4]),
                                        _F(INDIC_RESU=[2,5]),
                                        _F(INDIC_RESU=[2,6]),),
                       )

VAL=1.09558E-02

AM1=0.01

AM2=0.05

AM3=0.1

D01=VAL/AM3

D001=VAL/AM1

D005=D01 + ((5./9.)*( D001 - D01))

TEST_FONCTION(VALEUR=(_F(VALE_CALC=1.09558,
                         TOLE_MACHINE=1.E-3,
                         VALE_PARA=(0.5, 1.E-2),
                         NOM_PARA=('FREQ', 'AMOR'),
                         FONCTION=SPO,),
                      _F(VALE_CALC=0.65734800000000004,
                         TOLE_MACHINE=1.E-3,
                         VALE_PARA=(0.5, 0.050000000000000003),
                         NOM_PARA=('FREQ', 'AMOR'),
                         FONCTION=SPO,),
                      _F(VALE_CALC=0.10955799999999999,
                         TOLE_MACHINE=1.E-3,
                         VALE_PARA=(0.5, 0.10000000000000001),
                         NOM_PARA=('FREQ', 'AMOR'),
                         FONCTION=SPO,),
                      ),
              ATTRIBUT=(_F(PARA=1.E-2,
                           ATTR_REFE='ACCE',
                           FONCTION=SPO,
                           ATTR='NOM_RESU',),
                        _F(ATTR_REFE='LINEAIRE',
                           FONCTION=SPO,
                           ATTR='PROL_DROITE',),
                        _F(ATTR_REFE='CONSTANT',
                           FONCTION=SPO,
                           ATTR='PROL_GAUCHE',),
                        _F(PARA=1.E-2,
                           ATTR_REFE='LIN LIN ',
                           FONCTION=SPO,
                           ATTR='INTERPOL',),
                        _F(ATTR_REFE='EXCLU',
                           FONCTION=SPO,
                           ATTR='PROL_DROITE_FONC',),
                        _F(ATTR_REFE='EXCLU',
                           FONCTION=SPO,
                           ATTR='PROL_GAUCHE_FONC',),
                        _F(PARA=1.E-2,
                           ATTR_REFE='LIN LIN ',
                           FONCTION=SPO,
                           ATTR='INTERPOL_FONC',),
                        ),
              )

#----------------------------------------------------------------------

FIN()
#
