# TITRE ORIENTATION CIRCONFERENTIELLE DE GRILLES D'ARMATURES PAR AFFE_CARA_ELEM
# ======================================================================
# COPYRIGHT (C) 1991 - 2012  EDF R&D                  WWW.CODE-ASTER.ORG
# THIS PROGRAM IS FREE SOFTWARE; YOU CAN REDISTRIBUTE IT AND/OR MODIFY
# IT UNDER THE TERMS OF THE GNU GENERAL PUBLIC LICENSE AS PUBLISHED BY
# THE FREE SOFTWARE FOUNDATION; EITHER VERSION 2 OF THE LICENSE, OR
# (AT YOUR OPTION) ANY LATER VERSION.
#
# THIS PROGRAM IS DISTRIBUTED IN THE HOPE THAT IT WILL BE USEFUL, BUT
# WITHOUT ANY WARRANTY; WITHOUT EVEN THE IMPLIED WARRANTY OF
# MERCHANTABILITY OR FITNESS FOR A PARTICULAR PURPOSE. SEE THE GNU
# GENERAL PUBLIC LICENSE FOR MORE DETAILS.
#
# YOU SHOULD HAVE RECEIVED A COPY OF THE GNU GENERAL PUBLIC LICENSE
# ALONG WITH THIS PROGRAM; IF NOT, WRITE TO EDF R&D CODE_ASTER,
#    1 AVENUE DU GENERAL DE GAULLE, 92141 CLAMART CEDEX, FRANCE.
# ======================================================================

DEBUT(CODE=_F(NIV_PUB_WEB='INTERNET'),DEBUG=_F(SDVERI='OUI'))

#

MATER=DEFI_MATERIAU(ELAS=_F(E=200000.0,
                            NU=0.3,),);

MAIL1=LIRE_MAILLAGE(FORMAT='MED',);

MAIL1=DEFI_GROUP(reuse =MAIL1,
                 MAILLAGE=MAIL1,
                 CREA_GROUP_MA=_F(NOM='PLAQUE',
                                  TOUT='OUI',),);

MAILL=CREA_MAILLAGE(MAILLAGE=MAIL1,
                    CREA_GROUP_MA=_F(NOM='GRILLE',
                                     GROUP_MA='PLAQUE',
                                     PREF_MAILLE='B',),);

CHMAT=AFFE_MATERIAU(MAILLAGE=MAILL,
                    AFFE=_F(TOUT='OUI',
                            MATER=MATER,),);

MODEL=AFFE_MODELE(MAILLAGE=MAILL,
                  VERIF='MAILLE',
                  AFFE=(_F(GROUP_MA='PLAQUE',
                           PHENOMENE='MECANIQUE',
                           MODELISATION='DKT',),
                        _F(GROUP_MA='GRILLE',
                           PHENOMENE='MECANIQUE',
                           MODELISATION='GRILLE_MEMBRANE',),),);

CARA_COQ=AFFE_CARA_ELEM(MODELE=MODEL,
                        INFO=1,
                        COQUE=_F(GROUP_MA='PLAQUE',
                                 EPAIS=40.,
                                 COEF_RIGI_DRZ=0.,),
                        GRILLE=_F(GROUP_MA='GRILLE',
                                  SECTION=20.,
                                  AXE=(0,0,1,),),);

CHARGE=AFFE_CHAR_MECA(MODELE=MODEL,
                      DDL_IMPO=(_F(GROUP_NO='BCSANSBC',
                                   DX=0.0,
                                   DRY=0.0,
                                   DRZ=0.0,),
                                _F(GROUP_NO='ACSANSAC',
                                   DY=0.0,
                                   DRX=0.0,
                                   DRZ=0.0,),
                                _F(GROUP_NO='A',
                                   DY=0.0,
                                   DRX=0.0,
                                   DRZ=0.0,),
                                _F(GROUP_NO='B',
                                   DX=0.0,
                                   DRY=0.0,
                                   DRZ=0.0,),
                                _F(GROUP_NO='C',
                                   DX=0.0,
                                   DY=0.0,
                                   DZ=0.0,
                                   DRX=0.0,
                                   DRY=0.0,
                                   DRZ=0.0,),),);

FORCE=AFFE_CHAR_MECA(MODELE=MODEL,
                     FORCE_COQUE=_F(TOUT='OUI',
                                    PRES=10.,),);

TEMPS1=DEFI_LIST_REEL(DEBUT=0.0,
                      INTERVALLE=_F(JUSQU_A=1.0,
                                    NOMBRE=1,),);

RESU=STAT_NON_LINE(MODELE=MODEL,
                   CHAM_MATER=CHMAT,
                   CARA_ELEM=CARA_COQ,
                   EXCIT=(_F(CHARGE=CHARGE,),
                          _F(CHARGE=FORCE,),),
                   COMPORTEMENT=_F(RELATION='ELAS',
                                ),
                   INCREMENT=_F(LIST_INST=TEMPS1,),);

TEST_RESU(RESU=(_F(INST=1.0,
                   RESULTAT=RESU,
                   NOM_CHAM='DEPL',
                   NOEUD='NO30',
                   NOM_CMP='DX',
                   VALE_CALC=0.0,
                   CRITERE='ABSOLU',
                   ),
                _F(INST=1.0,
                   RESULTAT=RESU,
                   NOM_CHAM='DEPL',
                   NOEUD='NO30',
                   NOM_CMP='DY',
                   VALE_CALC=3.1392917360891E-05,),
                _F(INST=1.0,
                   RESULTAT=RESU,
                   NOM_CHAM='DEPL',
                   NOEUD='NO30',
                   NOM_CMP='DZ',
                   VALE_CALC=1.5355877623445E-05,),
                _F(INST=1.0,
                   RESULTAT=RESU,
                   NOM_CHAM='DEPL',
                   NOEUD='NO700',
                   NOM_CMP='DX',
                   VALE_CALC=4.4875270667719E-06,),
                _F(INST=1.0,
                   RESULTAT=RESU,
                   NOM_CHAM='DEPL',
                   NOEUD='NO700',
                   NOM_CMP='DY',
                   VALE_CALC=3.3210379053044E-05,),
                _F(INST=1.0,
                   RESULTAT=RESU,
                   NOM_CHAM='DEPL',
                   NOEUD='NO700',
                   NOM_CMP='DZ',
                   VALE_CALC=1.5154673198371E-05,),
                ),
          )

FIN();
