# MODIF  DATE 09/05/2012   AUTEUR DURAND C.DURAND 
# TITRE VALIDATION POST_RELEVE_T 2D EN DIFFERENTS REPERES
# zzzz136b.para = tps_job 60 mem_job 64Mo ncpus 1 liste_test R
#            CONFIGURATION MANAGEMENT OF EDF VERSION
# ======================================================================
# COPYRIGHT (C) 1991 - 2012  EDF R&D                  WWW.CODE-ASTER.ORG
# THIS PROGRAM IS FREE SOFTWARE; YOU CAN REDISTRIBUTE IT AND/OR MODIFY
# IT UNDER THE TERMS OF THE GNU GENERAL PUBLIC LICENSE AS PUBLISHED BY
# THE FREE SOFTWARE FOUNDATION; EITHER VERSION 2 OF THE LICENSE, OR
# (AT YOUR OPTION) ANY LATER VERSION.
#
# THIS PROGRAM IS DISTRIBUTED IN THE HOPE THAT IT WILL BE USEFUL, BUT
# WITHOUT ANY WARRANTY; WITHOUT EVEN THE IMPLIED WARRANTY OF
# MERCHANTABILITY OR FITNESS FOR A PARTICULAR PURPOSE. SEE THE GNU
# GENERAL PUBLIC LICENSE FOR MORE DETAILS.
#
# YOU SHOULD HAVE RECEIVED A COPY OF THE GNU GENERAL PUBLIC LICENSE
# ALONG WITH THIS PROGRAM; IF NOT, WRITE TO EDF R&D CODE_ASTER,
#    1 AVENUE DU GENERAL DE GAULLE, 92141 CLAMART CEDEX, FRANCE.
# ======================================================================
#                  INDICE _G     REPERE: 'GLOBAL'
#                  INDICE _L     REPERE: 'LOCAL'
#                  INDICE _U     REPERE: 'UTILISATEUR'
#                  INDICE _C     REPERE: 'CYLINDRIQUE'
#                  INDICE _P     REPERE: 'POLAIRE'
#
#       VALIDATION POST_RELEVE_T ET MACR_LIGN_COUPE EN 2D,
#                                    OPERANDE TRAC_DIR
#                                    OPERANDE TRAC_NOR
#                                    OPERANDE INVARIANT
#                                    OPERANDE ELEM_PRINCIPAUX
#
#       POST-TRAITEMENT D'UN TENSEUR
#                       D'UN VECTEUR
#

DEBUT(CODE=_F(NOM='ZZZZ136B',NIV_PUB_WEB='INTERNET'),IMPR_MACRO='OUI',DEBUG=_F(SDVERI='NON'))
# SDVERI='NON' car la verification est trop couteuse en CPU

MA=LIRE_MAILLAGE(  )

CHEM1=INTE_MAIL_2D(    MAILLAGE=MA,
                           DEFI_SEGMENT=_F(  GROUP_NO_ORIG = 'P1',
                                          GROUP_NO_EXTR = 'P2'),
                                INFO=2
                       )

CHEM2=INTE_MAIL_2D(    MAILLAGE=MA,
                            DEFI_CHEMIN=_F(  GROUP_MA = 'P2P3'),
#                             NOEUD_ORIG=('N14',),
                             GROUP_NO_ORIG=('P2',),
                                INFO=2
                       )

CHEM3=INTE_MAIL_2D(    MAILLAGE=MA,
                           DEFI_SEGMENT=_F(  GROUP_NO_ORIG = 'P4',
                                          GROUP_NO_EXTR = 'P3'),
                                INFO=2
                       )

DEFI_GROUP( reuse=MA,   MAILLAGE=MA,CREA_GROUP_NO=(
                       _F(  NOM = 'LIST1',
                                       OPTION = 'NOEUD_ORDO',
                                       GROUP_MA = 'P1P2',
                                       GROUP_NO_ORIG = 'P1',
                                       GROUP_NO_EXTR = 'P2'),
                       _F(  NOM = 'LIST2',
                                       OPTION = 'NOEUD_ORDO',
                                       GROUP_MA = 'P2P3',
                                       GROUP_NO_ORIG = 'P2',
                                       GROUP_NO_EXTR = 'P3'),
                       _F(  NOM = 'LIST3',
                                       OPTION = 'NOEUD_ORDO',
                                       GROUP_MA = 'P3P4',
                                       GROUP_NO_ORIG = 'P4',
                                       GROUP_NO_EXTR = 'P3'))
                   )

MO=AFFE_MODELE(    MAILLAGE=MA,
                           AFFE=_F(  TOUT = 'OUI',
                                  PHENOMENE = 'MECANIQUE',
                                  MODELISATION = 'D_PLAN')
                   )

MAT=DEFI_MATERIAU(     ELAS=_F(  E = 1.E+07,
                                   NU = 0.3)
                       )

CH_MAT=AFFE_MATERIAU(    MAILLAGE=MA,
                                 AFFE=_F(  TOUT = 'OUI',
                                        MATER = MAT)
                         )

CHARGE=AFFE_CHAR_MECA(    MODELE=MO,
                              FACE_IMPO=_F(  GROUP_MA = 'P3P4',
                                          DNOR = 0.),
                               DDL_IMPO=_F(  GROUP_MA = 'P1P2',
                                          DY = 0.),
                               PRES_REP=_F(  GROUP_MA = 'P4P1',
                                          PRES = 1.)
                          )

RESU=MECA_STATIQUE(        MODELE=MO,
                           CHAM_MATER=CH_MAT,
                                EXCIT=_F(  CHARGE = CHARGE),
                          )
CALC_ELEM( reuse=RESU, RESULTAT=RESU,

                               OPTION='SIGM_ELNO'
                          )

CALC_CHAMP( reuse=RESU, RESULTAT=RESU, CONTRAINTE='SIGM_NOEU' )


#######################################################################
#            I -  VALIDATION POST_RELEVE_T  EN 2D                     #
#######################################################################

#======================================================================
#
#                     OPERANDE  REPERE
#
#======================================================================
#
# ==> TENSEUR


S1_G=POST_RELEVE_T(  ACTION=_F(  CHEMIN = CHEM1,
                                    INTITULE = 'GLOBAL',
                                    RESULTAT = RESU,
                                    TOUT_CMP = 'OUI',
                                    NOM_CHAM = 'SIGM_ELNO',
                                    OPERATION = 'EXTRACTION',
                                    REPERE = 'GLOBAL'),
         TITRE='S1_G: CHEMIN P1 P2, REPERE GLOBAL'
                         )

IMPR_TABLE(   TABLE=S1_G,
                NOM_PARA=( 'ABSC_CURV', 'SIXX', 'SIYY', 'SIZZ', 'SIXY', )
             )

S1L_G=POST_RELEVE_T(  ACTION=_F(  GROUP_NO = 'LIST1',
                                    INTITULE = 'GLOBAL',
                                    RESULTAT = RESU,
                                    TOUT_CMP = 'OUI',
                                    NOM_CHAM = 'SIGM_ELNO',
                                    OPERATION = 'EXTRACTION',
                                    REPERE = 'GLOBAL'),
         TITRE='S1L_G: LISTE DE NOEUDS P1 P2, REPERE GLOBAL'
                         )

IMPR_TABLE(   TABLE=S1L_G,
                NOM_PARA=( 'ABSC_CURV', 'SIXX', 'SIYY', 'SIZZ', 'SIXY', )
             )

S1_L=POST_RELEVE_T(  ACTION=_F(  CHEMIN = CHEM1,
                                    INTITULE = 'LOCAL',
                                    RESULTAT = RESU,
                                    TOUT_CMP = 'OUI',
                                    NOM_CHAM = 'SIGM_ELNO',
                                    OPERATION = 'EXTRACTION',
                                    REPERE = 'LOCAL'),
         TITRE='S1_L: CHEMIN P1 P2, REPERE LOCAL'
                         )

IMPR_TABLE(   TABLE=S1_L,
                NOM_PARA=( 'ABSC_CURV', 'SIXX', 'SIYY', 'SIZZ', 'SIXY', )
             )

S1L_L=POST_RELEVE_T(  ACTION=_F(  GROUP_NO = 'LIST1',
                                    INTITULE = 'LOCAL',
                                    RESULTAT = RESU,
                                    TOUT_CMP = 'OUI',
                                    NOM_CHAM = 'SIGM_ELNO',
                                    OPERATION = 'EXTRACTION',
                                    REPERE = 'LOCAL'),
           TITRE='S1L_L: LISTE DE NOEUDS P1 P2, REPERE LOCAL'
                         )

IMPR_TABLE(   TABLE=S1L_L,
                NOM_PARA=( 'ABSC_CURV', 'SIXX', 'SIYY', 'SIZZ', 'SIXY', )
             )

S1_U=POST_RELEVE_T(  ACTION=_F(  CHEMIN = CHEM1,
                                    INTITULE = 'UTILISAT',
                                    RESULTAT = RESU,
                                    TOUT_CMP = 'OUI',
                                    NOM_CHAM = 'SIGM_ELNO',
                                    OPERATION = 'EXTRACTION',
                                    REPERE = 'UTILISATEUR',
                                    ANGL_NAUT = ( 0., 0., 0., )),
         TITRE=( 'S1_U: CHEMIN P1 P2, REPERE UTILISATEUR, ',
                 'ANGL_NAUT: ( 0. 0. 0. )', )
                         )

IMPR_TABLE(   TABLE=S1_U,
                NOM_PARA=( 'ABSC_CURV', 'SIXX', 'SIYY', 'SIZZ', 'SIXY', )
             )

S1L_U=POST_RELEVE_T(  ACTION=_F(  GROUP_NO = 'LIST1',
                                    INTITULE = 'UTILISAT',
                                    RESULTAT = RESU,
                                    TOUT_CMP = 'OUI',
                                    NOM_CHAM = 'SIGM_ELNO',
                                    OPERATION = 'EXTRACTION',
                                    REPERE = 'UTILISATEUR',
                                    ANGL_NAUT = ( 0., 0., 0., )),
         TITRE=( 'S1L_U: LISTE DE NOEUDS P1 P2, REPERE UTILISATEUR, ',
                 'ANGL_NAUT: ( 0. 0. 0. )', )
                         )

IMPR_TABLE(   TABLE=S1L_U,
                NOM_PARA=( 'ABSC_CURV', 'SIXX', 'SIYY', 'SIZZ', 'SIXY', )
             )

S2_G=POST_RELEVE_T(  ACTION=_F(  CHEMIN = CHEM2,
                                    INTITULE = 'GLOBAL',
                                    RESULTAT = RESU,
                                    TOUT_CMP = 'OUI',
                                    NOM_CHAM = 'SIGM_ELNO',
                                    OPERATION = 'EXTRACTION',
                                    REPERE = 'GLOBAL'),
            TITRE='S2_G: CHEMIN P2 P3, REPERE GLOBAL'
                         )

IMPR_TABLE(   TABLE=S2_G,
                NOM_PARA=( 'ABSC_CURV', 'SIXX', 'SIYY', 'SIZZ', 'SIXY', )
             )

S2L_G=POST_RELEVE_T(  ACTION=_F(  GROUP_NO = 'LIST2',
                                    INTITULE = 'GLOBAL',
                                    RESULTAT = RESU,
                                    TOUT_CMP = 'OUI',
                                    NOM_CHAM = 'SIGM_ELNO',
                                    OPERATION = 'EXTRACTION',
                                    REPERE = 'GLOBAL'),
            TITRE='S2L_G: LISTE DE NOEUDS P2 P3, REPERE GLOBAL'
                         )

IMPR_TABLE(   TABLE=S2L_G,
                NOM_PARA=( 'ABSC_CURV', 'SIXX', 'SIYY', 'SIZZ', 'SIXY', )
             )

S2_L=POST_RELEVE_T(  ACTION=_F(  CHEMIN = CHEM2,
                                    INTITULE = 'LOCAL',
                                    RESULTAT = RESU,
                                    TOUT_CMP = 'OUI',
                                    NOM_CHAM = 'SIGM_ELNO',
                                    OPERATION = 'EXTRACTION',
                                    REPERE = 'LOCAL'),
            TITRE='S2_L: CHEMIN P2 P3, REPERE LOCAL'
                         )

IMPR_TABLE(   TABLE=S2_L,
                NOM_PARA=( 'ABSC_CURV', 'SIXX', 'SIYY', 'SIZZ', 'SIXY', )
             )

S2L_L=POST_RELEVE_T(  ACTION=_F(  GROUP_NO = 'LIST2',
                                    INTITULE = 'LOCAL',
                                    RESULTAT = RESU,
                                    TOUT_CMP = 'OUI',
                                    NOM_CHAM = 'SIGM_ELNO',
                                    OPERATION = 'EXTRACTION',
                                    REPERE = 'LOCAL'),
           TITRE='S2L_L: LISTE DE NOEUDS P2 P3 REPERE LOCAL'
                         )

IMPR_TABLE(   TABLE=S2L_L,
                NOM_PARA=( 'ABSC_CURV', 'SIXX', 'SIYY', 'SIZZ', 'SIXY', )
             )

S2_C=POST_RELEVE_T(  ACTION=_F(  CHEMIN = CHEM2,
                                    INTITULE = 'CYLINDR',
                                    RESULTAT = RESU,
                                    TOUT_CMP = 'OUI',
                                    NOM_CHAM = 'SIGM_ELNO',
                                    OPERATION = 'EXTRACTION',
                                    REPERE = 'CYLINDRIQUE',
                                    ORIGINE = ( 0., 0., 0., ),
                                    AXE_Z = ( 0., 0., 1., )),
            TITRE=( 'S2_C: CHEMIN P2 P3, REPERE CYLINDRIQUE, ',
                     'ORIGINE: (0. 0. 0.), AXE_Z: (0. 0. 1.)', )
                         )

IMPR_TABLE(   TABLE=S2_C,
                NOM_PARA=( 'ABSC_CURV', 'SIXX', 'SIYY', 'SIZZ', 'SIXY', )
             )

S2L_C=POST_RELEVE_T(  ACTION=_F(  GROUP_NO = 'LIST2',
                                    INTITULE = 'CYLINDR',
                                    RESULTAT = RESU,
                                    TOUT_CMP = 'OUI',
                                    NOM_CHAM = 'SIGM_ELNO',
                                    OPERATION = 'EXTRACTION',
                                    REPERE = 'CYLINDRIQUE',
                                    ORIGINE = ( 0., 0., 0., ),
                                    AXE_Z = ( 0., 0., 1., )),
           TITRE=( 'S2L_C: LISTE DE NOEUDS P2 P3, REPERE CYLINDRIQUE, ',
                     'ORIGINE: (0. 0. 0.), AXE_Z: (0. 0. 1.)', )
                         )

IMPR_TABLE(   TABLE=S2L_C,
                NOM_PARA=( 'ABSC_CURV', 'SIXX', 'SIYY', 'SIZZ', 'SIXY', )
             )

S2_P=POST_RELEVE_T(  ACTION=_F(  CHEMIN = CHEM2,
                                    INTITULE = 'POLAIRE',
                                    RESULTAT = RESU,
                                    TOUT_CMP = 'OUI',
                                    NOM_CHAM = 'SIGM_ELNO',
                                    OPERATION = 'EXTRACTION',
                                    REPERE = 'POLAIRE'),
            TITRE='S2_P: CHEMIN P2 P3, REPERE POLAIRE'
                         )

IMPR_TABLE(   TABLE=S2_P,
                NOM_PARA=( 'ABSC_CURV', 'SIXX', 'SIYY', 'SIZZ', 'SIXY', )
             )

S2L_P=POST_RELEVE_T(  ACTION=_F(  GROUP_NO = 'LIST2',
                                    INTITULE = 'POLAIRE',
                                    RESULTAT = RESU,
                                    TOUT_CMP = 'OUI',
                                    NOM_CHAM = 'SIGM_ELNO',
                                    OPERATION = 'EXTRACTION',
                                    REPERE = 'POLAIRE'),
            TITRE='S2L_P: LISTE DE NOEUDS P2 P3, REPERE POLAIRE'
                         )

IMPR_TABLE(   TABLE=S2L_P,
                NOM_PARA=( 'ABSC_CURV', 'SIXX', 'SIYY', 'SIZZ', 'SIXY', )
             )

S3_G=POST_RELEVE_T(  ACTION=_F(  CHEMIN = CHEM3,
                                    INTITULE = 'GLOBAL',
                                    RESULTAT = RESU,
                                    TOUT_CMP = 'OUI',
                                    NOM_CHAM = 'SIGM_ELNO',
                                    OPERATION = 'EXTRACTION',
                                    REPERE = 'GLOBAL'),
         TITRE='S3_G: CHEMIN P4 P3, REPERE GLOBAL'
                         )

IMPR_TABLE(   TABLE=S3_G,
                NOM_PARA=( 'ABSC_CURV', 'SIXX', 'SIYY', 'SIZZ', 'SIXY', )
             )

S3L_G=POST_RELEVE_T(  ACTION=_F(  GROUP_NO = 'LIST3',
                                    INTITULE = 'GLOBAL',
                                    RESULTAT = RESU,
                                    TOUT_CMP = 'OUI',
                                    NOM_CHAM = 'SIGM_ELNO',
                                    OPERATION = 'EXTRACTION',
                                    REPERE = 'GLOBAL'),
         TITRE='S3L_G: LISTE DE NOEUDS P4 P3, REPERE GLOBAL'
                         )

IMPR_TABLE(   TABLE=S3L_G,
                NOM_PARA=( 'ABSC_CURV', 'SIXX', 'SIYY', 'SIZZ', 'SIXY', )
             )

S3_L=POST_RELEVE_T(  ACTION=_F(  CHEMIN = CHEM3,
                                    INTITULE = 'LOCAL',
                                    RESULTAT = RESU,
                                    TOUT_CMP = 'OUI',
                                    NOM_CHAM = 'SIGM_ELNO',
                                    OPERATION = 'EXTRACTION',
                                    REPERE = 'LOCAL'),
         TITRE='S3_L: CHEMIN P4 P3, REPERE LOCAL'
                         )

IMPR_TABLE(   TABLE=S3_L,
                NOM_PARA=( 'ABSC_CURV', 'SIXX', 'SIYY', 'SIZZ', 'SIXY', )
             )

S3L_L=POST_RELEVE_T(  ACTION=_F(  GROUP_NO = 'LIST3',
                                    INTITULE = 'LOCAL',
                                    RESULTAT = RESU,
                                    TOUT_CMP = 'OUI',
                                    NOM_CHAM = 'SIGM_ELNO',
                                    OPERATION = 'EXTRACTION',
                                    REPERE = 'LOCAL'),
         TITRE='S3L_L: LISTE DE NOEUDS P4 P3, REPERE LOCAL'
                         )

IMPR_TABLE(   TABLE=S3L_L,
                NOM_PARA=( 'ABSC_CURV', 'SIXX', 'SIYY', 'SIZZ', 'SIXY', )
             )

S3_U=POST_RELEVE_T(  ACTION=_F(  CHEMIN = CHEM3,
                                    INTITULE = 'UTILISAT',
                                    RESULTAT = RESU,
                                    TOUT_CMP = 'OUI',
                                    NOM_CHAM = 'SIGM_ELNO',
                                    OPERATION = 'EXTRACTION',
                                    REPERE = 'UTILISATEUR',
                                    ANGL_NAUT = ( 45., 0., 0., )),
         TITRE=( 'S3_U: CHEMIN P4 P3, REPERE UTILISATEUR, ',
                 'ANGL_NAUT : ( 45. 0. 0. )', )
                         )

IMPR_TABLE(   TABLE=S3_U,
                NOM_PARA=( 'ABSC_CURV', 'SIXX', 'SIYY', 'SIZZ', 'SIXY', )
             )

S3L_U=POST_RELEVE_T(  ACTION=_F(  GROUP_NO = 'LIST3',
                                    INTITULE = 'UTILISAT',
                                    RESULTAT = RESU,
                                    TOUT_CMP = 'OUI',
                                    NOM_CHAM = 'SIGM_ELNO',
                                    OPERATION = 'EXTRACTION',
                                    REPERE = 'UTILISATEUR',
                                    ANGL_NAUT = ( 45., 0., 0., )),
          TITRE=( 'S3L_U: LISTE DE NOEUDS P4 P3, REPERE UTILISATEUR, ',
                 'ANGL_NAUT : ( 45. 0. 0. )', )
                         )

IMPR_TABLE(   TABLE=S3L_U,
                NOM_PARA=( 'ABSC_CURV', 'SIXX', 'SIYY', 'SIZZ', 'SIXY', )
             )

#
# ==> VECTEUR


D1_G=POST_RELEVE_T(  ACTION=_F(  CHEMIN = CHEM1,
                                    INTITULE = 'GLOBAL',
                                    RESULTAT = RESU,
                                    TOUT_CMP = 'OUI',
                                    NOM_CHAM = 'DEPL',
                                    OPERATION = 'EXTRACTION',
                                    REPERE = 'GLOBAL'),
         TITRE='D1_G: CHEMIN P1 P2, REPERE GLOBAL'
                         )

IMPR_TABLE(   TABLE=D1_G,
                NOM_PARA=( 'ABSC_CURV', 'DX', 'DY', )
             )

D1L_G=POST_RELEVE_T(  ACTION=_F(  GROUP_NO = 'LIST1',
                                    INTITULE = 'GLOBAL',
                                    RESULTAT = RESU,
                                    TOUT_CMP = 'OUI',
                                    NOM_CHAM = 'DEPL',
                                    OPERATION = 'EXTRACTION',
                                    REPERE = 'GLOBAL'),
          TITRE='D1L_G: LISTE DE NOEUDS P1 P2, REPERE GLOBAL'
                         )

IMPR_TABLE(   TABLE=D1L_G,
                NOM_PARA=( 'ABSC_CURV', 'DX', 'DY', )
             )

D1_L=POST_RELEVE_T(  ACTION=_F(  CHEMIN = CHEM1,
                                    INTITULE = 'LOCAL',
                                    RESULTAT = RESU,
                                    TOUT_CMP = 'OUI',
                                    NOM_CHAM = 'DEPL',
                                    OPERATION = 'EXTRACTION',
                                    REPERE = 'LOCAL'),
         TITRE='D1_L: CHEMIN P1 P2, REPERE LOCAL'
                         )

IMPR_TABLE(   TABLE=D1_L,
                NOM_PARA=( 'ABSC_CURV', 'DX', 'DY', )
             )

D1L_L=POST_RELEVE_T(  ACTION=_F(  GROUP_NO = 'LIST1',
                                    INTITULE = 'LOCAL',
                                    RESULTAT = RESU,
                                    TOUT_CMP = 'OUI',
                                    NOM_CHAM = 'DEPL',
                                    OPERATION = 'EXTRACTION',
                                    REPERE = 'LOCAL'),
         TITRE='D1L_L: LISTE DE NOEUDS P1 P2, REPERE LOCAL'
                         )

IMPR_TABLE(   TABLE=D1L_L,
                NOM_PARA=( 'ABSC_CURV', 'DX', 'DY', )
             )

D1_U=POST_RELEVE_T(  ACTION=_F(  CHEMIN = CHEM1,
                                    INTITULE = 'UTILISAT',
                                    RESULTAT = RESU,
                                    TOUT_CMP = 'OUI',
                                    NOM_CHAM = 'DEPL',
                                    OPERATION = 'EXTRACTION',
                                    REPERE = 'UTILISATEUR',
                                    ANGL_NAUT = ( 0., 0., 0., )),
         TITRE=( 'D1_U: CHEMIN P1 P2, REPERE UTILISATEUR, ',
                 'ANGL_NAUT : ( 0. 0. 0. )', )
                         )

IMPR_TABLE(   TABLE=D1_U,
                NOM_PARA=( 'ABSC_CURV', 'DX', 'DY', )
             )

D1L_U=POST_RELEVE_T(  ACTION=_F(  GROUP_NO = 'LIST1',
                                    INTITULE = 'UTILISAT',
                                    RESULTAT = RESU,
                                    TOUT_CMP = 'OUI',
                                    NOM_CHAM = 'DEPL',
                                    OPERATION = 'EXTRACTION',
                                    REPERE = 'UTILISATEUR',
                                    ANGL_NAUT = ( 0., 0., 0., )),
         TITRE=( 'D1L_U: LISTE DE NOEUDS P1 P2, REPERE UTILISATEUR, ',
                 'ANGL_NAUT : ( 0. 0. 0. )', )
                         )

IMPR_TABLE(   TABLE=D1L_U,
                NOM_PARA=( 'ABSC_CURV', 'DX', 'DY', )
             )

D2_G=POST_RELEVE_T(  ACTION=_F(  CHEMIN = CHEM2,
                                    INTITULE = 'GLOBAL',
                                    RESULTAT = RESU,
                                    TOUT_CMP = 'OUI',
                                    NOM_CHAM = 'DEPL',
                                    OPERATION = 'EXTRACTION',
                                    REPERE = 'GLOBAL'),
         TITRE='D2_G: CHEMIN P2 P3, REPERE GLOBAL'
                         )

IMPR_TABLE(   TABLE=D2_G,
                NOM_PARA=( 'ABSC_CURV', 'DX', 'DY', )
             )

D2L_G=POST_RELEVE_T(  ACTION=_F(  GROUP_NO = 'LIST2',
                                    INTITULE = 'GLOBAL',
                                    RESULTAT = RESU,
                                    TOUT_CMP = 'OUI',
                                    NOM_CHAM = 'DEPL',
                                    OPERATION = 'EXTRACTION',
                                    REPERE = 'GLOBAL'),
         TITRE='D2L_G: LISTE DE NOEUDS P2 P3, REPERE GLOBAL'
                         )

IMPR_TABLE(   TABLE=D2L_G,
                NOM_PARA=( 'ABSC_CURV', 'DX', 'DY', )
             )

D2_L=POST_RELEVE_T(  ACTION=_F(  CHEMIN = CHEM2,
                                    INTITULE = 'LOCAL',
                                    RESULTAT = RESU,
                                    TOUT_CMP = 'OUI',
                                    NOM_CHAM = 'DEPL',
                                    OPERATION = 'EXTRACTION',
                                    REPERE = 'LOCAL'),
         TITRE='D2_L: CHEMIN P2 P3, REPERE LOCAL'
                         )

IMPR_TABLE(   TABLE=D2_L,
                NOM_PARA=( 'ABSC_CURV', 'DX', 'DY', )
             )

D2L_L=POST_RELEVE_T(  ACTION=_F(  GROUP_NO = 'LIST2',
                                    INTITULE = 'LOCAL',
                                    RESULTAT = RESU,
                                    TOUT_CMP = 'OUI',
                                    NOM_CHAM = 'DEPL',
                                    OPERATION = 'EXTRACTION',
                                    REPERE = 'LOCAL'),
         TITRE='D2L_L: LISTE DE NOEUDS P2 P3, REPERE LOCAL'
                         )

IMPR_TABLE(   TABLE=D2L_L,
                NOM_PARA=( 'ABSC_CURV', 'DX', 'DY', )
             )

D2_C=POST_RELEVE_T(  ACTION=_F(  CHEMIN = CHEM2,
                                    INTITULE = 'CYLINDR',
                                    RESULTAT = RESU,
                                    TOUT_CMP = 'OUI',
                                    NOM_CHAM = 'DEPL',
                                    OPERATION = 'EXTRACTION',
                                    REPERE = 'CYLINDRIQUE',
                                    ORIGINE = ( 0., 0., 0., ),
                                    AXE_Z = ( 0., 0., 1., )),
         TITRE=( 'D2_C: CHEMIN P2 P3, REPERE CYLINDRIQUE, ',
                 'ORIGINE: (0. 0. 0.), AXE_Z: (0. 0. 1.)', )
                         )

IMPR_TABLE(   TABLE=D2_C,
                NOM_PARA=( 'ABSC_CURV', 'DX', 'DY', )
             )

D2L_C=POST_RELEVE_T(  ACTION=_F(  GROUP_NO = 'LIST2',
                                    INTITULE = 'CYLINDR',
                                    RESULTAT = RESU,
                                    TOUT_CMP = 'OUI',
                                    NOM_CHAM = 'DEPL',
                                    OPERATION = 'EXTRACTION',
                                    REPERE = 'CYLINDRIQUE',
                                    ORIGINE = ( 0., 0., 0., ),
                                    AXE_Z = ( 0., 0., 1., )),
         TITRE=( 'D2L_C: LISTE DE NOEUDS P2 P3, REPERE CYLINDRIQUE, ',
                 'ORIGINE: (0. 0. 0.), AXE_Z: (0. 0. 1.)', )
                         )

IMPR_TABLE(   TABLE=D2L_C,
                NOM_PARA=( 'ABSC_CURV', 'DX', 'DY', )
             )

D2_P=POST_RELEVE_T(  ACTION=_F(  CHEMIN = CHEM2,
                                    INTITULE = 'POLAIRE',
                                    RESULTAT = RESU,
                                    TOUT_CMP = 'OUI',
                                    NOM_CHAM = 'DEPL',
                                    OPERATION = 'EXTRACTION',
                                    REPERE = 'POLAIRE'),
         TITRE='D2_P: CHEMIN P2 P3, REPERE POLAIRE'
                         )

IMPR_TABLE(   TABLE=D2_P,
                NOM_PARA=( 'ABSC_CURV', 'DX', 'DY', )
             )

D2L_P=POST_RELEVE_T(  ACTION=_F(  GROUP_NO = 'LIST2',
                                    INTITULE = 'POLAIRE',
                                    RESULTAT = RESU,
                                    TOUT_CMP = 'OUI',
                                    NOM_CHAM = 'DEPL',
                                    OPERATION = 'EXTRACTION',
                                    REPERE = 'POLAIRE'),
         TITRE='D2L_P: LISTE DE NOEUDS P2 P3, REPERE POLAIRE'
                         )

IMPR_TABLE(   TABLE=D2L_P,
                NOM_PARA=( 'ABSC_CURV', 'DX', 'DY', )
             )

D3_G=POST_RELEVE_T(  ACTION=_F(  CHEMIN = CHEM3,
                                    INTITULE = 'GLOBAL',
                                    RESULTAT = RESU,
                                    TOUT_CMP = 'OUI',
                                    NOM_CHAM = 'DEPL',
                                    OPERATION = 'EXTRACTION',
                                    REPERE = 'GLOBAL'),
          TITRE='D3_G: CHEMIN P4 P3, REPERE GLOBAL'
                         )

IMPR_TABLE(   TABLE=D3_G,
                NOM_PARA=( 'ABSC_CURV', 'DX', 'DY', )
             )

D3L_G=POST_RELEVE_T(  ACTION=_F(  GROUP_NO = 'LIST3',
                                    INTITULE = 'GLOBAL',
                                    RESULTAT = RESU,
                                    TOUT_CMP = 'OUI',
                                    NOM_CHAM = 'DEPL',
                                    OPERATION = 'EXTRACTION',
                                    REPERE = 'GLOBAL'),
         TITRE='D3L_G: LISTE DE NOEUDS P4 P3, REPERE GLOBAL'
                         )

IMPR_TABLE(   TABLE=D3L_G,
                NOM_PARA=( 'ABSC_CURV', 'DX', 'DY', )
             )

D3_L=POST_RELEVE_T(  ACTION=_F(  CHEMIN = CHEM3,
                                    INTITULE = 'LOCAL',
                                    RESULTAT = RESU,
                                    TOUT_CMP = 'OUI',
                                    NOM_CHAM = 'DEPL',
                                    OPERATION = 'EXTRACTION',
                                    REPERE = 'LOCAL'),
         TITRE='D3_L: CHEMIN P4 P3, REPERE LOCAL'
                         )

IMPR_TABLE(   TABLE=D3_L,
                NOM_PARA=( 'ABSC_CURV', 'DX', 'DY', )
             )

D3L_L=POST_RELEVE_T(  ACTION=_F(  GROUP_NO = 'LIST3',
                                    INTITULE = 'LOCAL',
                                    RESULTAT = RESU,
                                    TOUT_CMP = 'OUI',
                                    NOM_CHAM = 'DEPL',
                                    OPERATION = 'EXTRACTION',
                                    REPERE = 'LOCAL'),
         TITRE='D3L_L: LISTE DE NOEUDS P4 P3, REPERE LOCAL'
                         )

IMPR_TABLE(   TABLE=D3L_L,
                NOM_PARA=( 'ABSC_CURV', 'DX', 'DY', )
             )

D3_U=POST_RELEVE_T(  ACTION=_F(  CHEMIN = CHEM3,
                                    INTITULE = 'UTILISAT',
                                    RESULTAT = RESU,
                                    TOUT_CMP = 'OUI',
                                    NOM_CHAM = 'DEPL',
                                    OPERATION = 'EXTRACTION',
                                    REPERE = 'UTILISATEUR',
                                    ANGL_NAUT = ( 45., 0., 0., )),
         TITRE=( 'D3_U: CHEMIN P4 P3, REPERE UTILISATEUR, ',
                 'ANGL_NAUT : ( 45. 0. 0. )', )
                         )

IMPR_TABLE(   TABLE=D3_U,
                NOM_PARA=( 'ABSC_CURV', 'DX', 'DY', )
             )

D3L_U=POST_RELEVE_T(  ACTION=_F(  GROUP_NO = 'LIST3',
                                    INTITULE = 'UTILISAT',
                                    RESULTAT = RESU,
                                    TOUT_CMP = 'OUI',
                                    NOM_CHAM = 'DEPL',
                                    OPERATION = 'EXTRACTION',
                                    REPERE = 'UTILISATEUR',
                                    ANGL_NAUT = ( 45., 0., 0., )),
          TITRE=( 'D3L_U: LISTE DE NOEUDS P4 P3, REPERE UTILISATEUR, ',
                  'ANGL_NAUT : ( 45. 0. 0. )', )
                         )

IMPR_TABLE(   TABLE=D3L_U,
                NOM_PARA=( 'ABSC_CURV', 'DX', 'DY', )
             )

#======================================================================
#
#                     OPERANDE  TRAC_NOR
#
#======================================================================
#
# ==> TENSEUR


S1_TN=POST_RELEVE_T(  ACTION=_F(  CHEMIN = CHEM1,
                                    INTITULE = 'TRAC_NOR',
                                    RESULTAT = RESU,
               NOM_CMP = ( 'SIXX', 'SIYY', 'SIZZ', 'SIXY', 'SIXZ', 'SIYZ', ),
                                    NOM_CHAM = 'SIGM_ELNO',
                                    OPERATION = 'EXTRACTION',
                                    TRAC_NOR = 'OUI'),
             TITRE='S1_TN: CHEMIN P1 P2, TRAC_NOR '
                         )

IMPR_TABLE(   TABLE=S1_TN,
             NOM_PARA=( 'ABSC_CURV', 'TR_NOR_1', 'TR_NOR_2', 'TR_NOR_3', )
             )

S1L_TN=POST_RELEVE_T(  ACTION=_F(  GROUP_NO = 'LIST1',
                                    INTITULE = 'TRAC_NOR',
                                    RESULTAT = RESU,
               NOM_CMP = ( 'SIXX', 'SIYY', 'SIZZ', 'SIXY', ),
                                    NOM_CHAM = 'SIGM_ELNO',
                                    OPERATION = 'EXTRACTION',
                                    TRAC_NOR = 'OUI'),
             TITRE='S1L_TN: LISTE DE NOEUDS P1 P2, TRAC_NOR '
                         )

IMPR_TABLE(   TABLE=S1L_TN,
             NOM_PARA=( 'ABSC_CURV', 'TR_NOR_1', 'TR_NOR_2', 'TR_NOR_3', )
             )

#
# ==> VECTEUR
#     VOIR TEST TPLL01A

#======================================================================
#
#                     OPERANDE  TRAC_DIR
#
#======================================================================
#
# ==> TENSEUR


S1_TDX=POST_RELEVE_T(  ACTION=_F(  CHEMIN = CHEM1,
                                    INTITULE = 'TRAC_DIRX',
                                    RESULTAT = RESU,
               NOM_CMP = ( 'SIXX', 'SIYY', 'SIZZ', 'SIXY', 'SIXZ', 'SIYZ', ),
                                    NOM_CHAM = 'SIGM_ELNO',
                                    OPERATION = 'EXTRACTION',
                                    TRAC_DIR = 'OUI',
                                    DIRECTION = ( 1., 0., 0., )),
             TITRE=( 'S1_TDX: CHEMIN  P1 P2, TRAC_DIR, ',
                     'DIRECTION: (1. 0. 0.)', )
                         )

IMPR_TABLE(   TABLE=S1_TDX,
              NOM_PARA=( 'ABSC_CURV', 'TR_DIR_1', 'TR_DIR_2', 'TR_DIR_3', )
             )

S1L_TDX=POST_RELEVE_T(  ACTION=_F(  GROUP_NO = 'LIST1',
                                    INTITULE = 'TRAC_DIRX',
                                    RESULTAT = RESU,
               NOM_CMP = ( 'SIXX', 'SIYY', 'SIZZ', 'SIXY', ),
                                    NOM_CHAM = 'SIGM_ELNO',
                                    OPERATION = 'EXTRACTION',
                                    TRAC_DIR = 'OUI',
                                    DIRECTION = ( 1., 0., 0., )),
             TITRE=( 'S1L_TDX: LISTE DE NOEUDS P1 P2, TRAC_DIR, ',
                     'DIRECTION: (1. 0. 0.)', )
                         )

IMPR_TABLE(   TABLE=S1L_TDX,
              NOM_PARA=( 'ABSC_CURV', 'TR_DIR_1', 'TR_DIR_2', 'TR_DIR_3', )
             )

S1_TDY=POST_RELEVE_T(  ACTION=_F(  CHEMIN = CHEM1,
                                    INTITULE = 'TRAC_DIRY',
                                    RESULTAT = RESU,
               NOM_CMP = ( 'SIXX', 'SIYY', 'SIZZ', 'SIXY', 'SIXZ', 'SIYZ', ),
                                    NOM_CHAM = 'SIGM_ELNO',
                                    OPERATION = 'EXTRACTION',
                                    TRAC_DIR = 'OUI',
                                    DIRECTION = ( 0., 1., 0., )),
             TITRE=( 'S1_TDY: CHEMIN P1 P2, TRAC_DIR, ',
                     'DIRECTION: (0. 1. 0.)', )
                         )

IMPR_TABLE(   TABLE=S1_TDY,
              NOM_PARA=( 'ABSC_CURV', 'TR_DIR_1', 'TR_DIR_2', 'TR_DIR_3', )
             )

S1L_TDY=POST_RELEVE_T(  ACTION=_F(  GROUP_NO = 'LIST1',
                                    INTITULE = 'TRAC_DIRY',
                                    RESULTAT = RESU,
               NOM_CMP = ( 'SIXX', 'SIYY', 'SIZZ', 'SIXY',),
                                    NOM_CHAM = 'SIGM_ELNO',
                                    OPERATION = 'EXTRACTION',
                                    TRAC_DIR = 'OUI',
                                    DIRECTION = ( 0., 1., 0., )),
             TITRE=( 'S1L_TDY: LISTE DE NOEUDS P1 P2, TRAC_DIR, ',
                     'DIRECTION: (0. 1. 0.)', )
                         )

IMPR_TABLE(   TABLE=S1L_TDY,
              NOM_PARA=( 'ABSC_CURV', 'TR_DIR_1', 'TR_DIR_2', 'TR_DIR_3', )
             )

S1_TDXY=POST_RELEVE_T(  ACTION=_F(  CHEMIN = CHEM1,
                                    INTITULE = 'TRAC_DIRXY',
                                    RESULTAT = RESU,
               NOM_CMP = ( 'SIXX', 'SIYY', 'SIZZ', 'SIXY', 'SIXZ', 'SIYZ', ),
                                    NOM_CHAM = 'SIGM_ELNO',
                                    OPERATION = 'EXTRACTION',
                                    TRAC_DIR = 'OUI',
                                    DIRECTION = ( 1., 1., 0., )),
             TITRE=( 'S1_TDXY: CHEMIN P1 P2, TRAC_DIR, ',
                     'DIRECTION: (1. 1. 0.)', )
                         )

IMPR_TABLE(   TABLE=S1_TDXY,
              NOM_PARA=( 'ABSC_CURV', 'TR_DIR_1', 'TR_DIR_2', 'TR_DIR_3', )
             )

S1L_TDXY=POST_RELEVE_T(  ACTION=_F(  GROUP_NO = 'LIST1',
                                    INTITULE = 'TRAC_DIRXY',
                                    RESULTAT = RESU,
               NOM_CMP = ( 'SIXX', 'SIYY', 'SIZZ', 'SIXY',),
                                    NOM_CHAM = 'SIGM_ELNO',
                                    OPERATION = 'EXTRACTION',
                                    TRAC_DIR = 'OUI',
                                    DIRECTION = ( 1., 1., 0., )),
             TITRE=( 'S1L_TDXY: LISTE DE NOEUDS P1 P2, TRAC_DIR, ',
                     'DIRECTION: (1. 1. 0.)', )
                         )

IMPR_TABLE(   TABLE=S1L_TDXY,
              NOM_PARA=( 'ABSC_CURV', 'TR_DIR_1', 'TR_DIR_2', 'TR_DIR_3', )
             )

#
# ==> VECTEUR


D1_TDX=POST_RELEVE_T(  ACTION=_F(  CHEMIN = CHEM1,
                                    INTITULE = 'TRAC_DIRX',
                                    RESULTAT = RESU,
                                    NOM_CMP = ( 'DX', 'DY', ),
                                    NOM_CHAM = 'DEPL',
                                    OPERATION = 'EXTRACTION',
                                    TRAC_DIR = 'OUI',
                                    DIRECTION = ( 1., 0., 0., )),
             TITRE=( 'D1_TDX: CHEMIN P1 P2, TRAC_DIR, ',
                     'DIRECTION: (1. 0. 0.)', )
                         )

IMPR_TABLE(   TABLE=D1_TDX,
                NOM_PARA=( 'ABSC_CURV', 'TRAC_DIR', )
             )

D1L_TDX=POST_RELEVE_T(  ACTION=_F(  GROUP_NO = 'LIST1',
                                    INTITULE = 'TRAC_DIRX',
                                    RESULTAT = RESU,
                                    NOM_CMP = ( 'DX', 'DY', ),
                                    NOM_CHAM = 'DEPL',
                                    OPERATION = 'EXTRACTION',
                                    TRAC_DIR = 'OUI',
                                    DIRECTION = ( 1., 0., 0., )),
             TITRE=( 'D1L_TDX: LISTE DE NOEUDS P1 P2, TRAC_DIR, ',
                     'DIRECTION: (1. 0. 0.)', )
                         )

IMPR_TABLE(   TABLE=D1L_TDX,
                NOM_PARA=( 'ABSC_CURV', 'TRAC_DIR', )
             )

#======================================================================
#
#                     OPERANDE  INVARIANT
#
#======================================================================
#

INVA_EL = POST_RELEVE_T(  ACTION=_F( GROUP_NO = 'LIST1',
                                     INTITULE = 'INVARIANT',
                                     RESULTAT = RESU,
                                     NOM_CHAM = 'SIGM_ELNO',
                                     OPERATION = 'EXTRACTION',
                                     INVARIANT = 'OUI',
                                  ),
             TITRE=( 'INVA_EL: LISTE DE NOEUDS P1 P2, INVARIANT, ',
                     'A PARTIR DE SIGM_ELNO', )
                         )

IMPR_TABLE(   TABLE=INVA_EL,
              NOM_PARA=( 'NOM_CHAM', 'ABSC_CURV', 'NOEUD', 'VMIS', 'TRESCA', 'TRACE', 'DETER'),
             )

INVA_NO = POST_RELEVE_T(  ACTION=_F( GROUP_NO = 'LIST1',
                                     INTITULE = 'INVARIANT',
                                     RESULTAT = RESU,
                                     NOM_CHAM = 'SIGM_NOEU',
                                     OPERATION = 'EXTRACTION',
                                     INVARIANT = 'OUI',
                                  ),
             TITRE=( 'INVA_NO: LISTE DE NOEUDS P1 P2, INVARIANT, ',
                     'A PARTIR DE SIGM_NOEU', )
                         )

IMPR_TABLE(   TABLE=INVA_NO,
              NOM_PARA=( 'NOM_CHAM', 'ABSC_CURV', 'NOEUD', 'VMIS', 'TRESCA', 'TRACE', 'DETER'),
             )


#======================================================================
#
#                     OPERANDE  ELEM_PRINCIPAUX
#
#======================================================================
#

PRIN_EL = POST_RELEVE_T(  ACTION=_F( GROUP_NO = 'LIST1',
                                     INTITULE = 'INVARIANT',
                                     RESULTAT = RESU,
                                     NOM_CHAM = 'SIGM_ELNO',
                                     OPERATION = 'EXTRACTION',
                                     ELEM_PRINCIPAUX = 'OUI',
                                  ),
             TITRE=( 'PRIN_EL: LISTE DE NOEUDS P1 P2, ELEM_PRINCIPAUX, ',
                     'A PARTIR DE SIGM_ELNO', )
                         )

IMPR_TABLE(   TABLE=PRIN_EL,
              NOM_PARA=( 'NOM_CHAM', 'ABSC_CURV', 'NOEUD', 'PRIN_1', 'PRIN_2', 'PRIN_3' )
             )

PRIN_NO = POST_RELEVE_T(  ACTION=_F( GROUP_NO = 'LIST1',
                                     INTITULE = 'INVARIANT',
                                     RESULTAT = RESU,
                                     NOM_CHAM = 'SIGM_NOEU',
                                     OPERATION = 'EXTRACTION',
                                     ELEM_PRINCIPAUX = 'OUI',
                                  ),
             TITRE=( 'PRIN_NO: LISTE DE NOEUDS P1 P2, ELEM_PRINCIPAUX, ',
                     'A PARTIR DE SIGM_NOEU', )
                         )

IMPR_TABLE(   TABLE=PRIN_NO,
              NOM_PARA=( 'NOM_CHAM', 'ABSC_CURV', 'NOEUD', 'PRIN_1', 'PRIN_2', 'PRIN_3' )
             )

#######################################################################
#            II -  VALIDATION MACR_LIGN_COUPE  EN 2D                  #
#######################################################################

#======================================================================
#
#                     OPERANDE  REPERE
#
#======================================================================
#
# ==> TENSEUR


M1L_G=MACR_LIGN_COUPE( RESULTAT= RESU,NOM_CHAM = 'SIGM_ELNO',
                      LIGN_COUPE = _F(TYPE='GROUP_NO', REPERE='GLOBAL',
                                      OPERATION='EXTRACTION',
                                      GROUP_NO='LIST1',
                                      INTITULE='M1L_G: LISTE DE NOEUDS P1 P2, REPERE GLOBAL',
                                      DISTANCE_MAX=0.001,),)
IMPR_TABLE(TABLE=M1L_G,
              NOM_PARA=( 'ABSC_CURV', 'SIXX', 'SIYY', 'SIZZ', 'SIXY', )
             )

P1L_G=POST_RELEVE_T(  ACTION=_F(  GROUP_NO = 'LIST1',
                                    INTITULE = 'GLOBAL',
                                    RESULTAT = RESU,
                                    TOUT_CMP = 'OUI',
                                    NOM_CHAM = 'SIGM_ELNO',
                                    OPERATION = 'EXTRACTION',
                                    REPERE = 'GLOBAL'),
         TITRE='P1L_G: LISTE DE NOEUDS P1 P2, REPERE GLOBAL'
                         )

IMPR_TABLE(   TABLE=P1L_G,
                NOM_PARA=( 'ABSC_CURV', 'SIXX', 'SIYY', 'SIZZ', 'SIXY', )
             )
# ---------

M1_L=MACR_LIGN_COUPE( RESULTAT= RESU,NOM_CHAM = 'SIGM_ELNO',
                      LIGN_COUPE = _F(TYPE='GROUP_NO', REPERE='LOCAL',
                                      VECT_Y = ( 1., 1.,),
                                      OPERATION='EXTRACTION',
                                      GROUP_NO='LIST1',
                                      INTITULE='M1_L: LISTE DE NOEUDS P1 P2, REPERE LOCAL',
                                      DISTANCE_MAX=0.001,),)
IMPR_TABLE(TABLE=M1_L,
   NOM_PARA=( 'ABSC_CURV', 'SIXX', 'SIYY', 'SIZZ', 'SIXY', )
             )



P1_L=POST_RELEVE_T(  ACTION=_F(  CHEMIN = CHEM1,
                                    INTITULE = 'LOCAL',
                                    RESULTAT = RESU,
                                    TOUT_CMP = 'OUI',
                                    NOM_CHAM = 'SIGM_ELNO',
                                    OPERATION = 'EXTRACTION',
                                    REPERE = 'LOCAL'),
         TITRE='P1_L: CHEMIN P1 P2, REPERE LOCAL'
                         )

IMPR_TABLE(   TABLE=P1_L,
                NOM_PARA=( 'ABSC_CURV', 'SIXX', 'SIYY', 'SIZZ', 'SIXY', )
             )

# ---------

M1_U=MACR_LIGN_COUPE( RESULTAT= RESU,NOM_CHAM = 'SIGM_ELNO',
                      LIGN_COUPE = _F(TYPE='GROUP_NO', REPERE='UTILISATEUR',
                                      ANGL_NAUT = ( 0., 0., 0., ),
                                      OPERATION='EXTRACTION',
                                      GROUP_NO='LIST1',
                                      INTITULE='M1_U: LISTE DE NOEUDS P1 P2, REPERE UTILISATEUR, ANGL_NAUT: ( 0. 0. 0. )',
                                      DISTANCE_MAX=0.001,),)
IMPR_TABLE(TABLE=M1_U,
   NOM_PARA=( 'ABSC_CURV', 'SIXX', 'SIYY', 'SIZZ', 'SIXY', )
             )


P1_U=POST_RELEVE_T(  ACTION=_F(  CHEMIN = CHEM1,
                                    INTITULE = 'UTILISAT',
                                    RESULTAT = RESU,
                                    TOUT_CMP = 'OUI',
                                    NOM_CHAM = 'SIGM_ELNO',
                                    OPERATION = 'EXTRACTION',
                                    REPERE = 'UTILISATEUR',
                                    ANGL_NAUT = ( 0., 0., 0., )),
         TITRE=( 'P1_U: CHEMIN P1 P2, REPERE UTILISATEUR, ',
                 'ANGL_NAUT: ( 0. 0. 0. )', )
                         )

IMPR_TABLE(   TABLE=P1_U,
                NOM_PARA=( 'ABSC_CURV', 'SIXX', 'SIYY', 'SIZZ', 'SIXY', )
             )

# ---------

M2_G=MACR_LIGN_COUPE( RESULTAT= RESU,NOM_CHAM = 'SIGM_ELNO',
                      LIGN_COUPE = _F(TYPE='GROUP_NO', REPERE='GLOBAL',
                                      OPERATION='EXTRACTION',
                                      GROUP_NO='LIST2',
                                      INTITULE='M2L_G: LISTE DE NOEUDS P2 P3, REPERE GLOBAL',
                                      DISTANCE_MAX=0.001,),)
IMPR_TABLE(TABLE=M2_G,
              NOM_PARA=( 'ABSC_CURV', 'SIXX', 'SIYY', 'SIZZ', 'SIXY', )
             )

P2L_G=POST_RELEVE_T(  ACTION=_F(  GROUP_NO = 'LIST2',
                                    INTITULE = 'GLOBAL',
                                    RESULTAT = RESU,
                                    TOUT_CMP = 'OUI',
                                    NOM_CHAM = 'SIGM_ELNO',
                                    OPERATION = 'EXTRACTION',
                                    REPERE = 'GLOBAL'),
            TITRE='P2L_G: LISTE DE NOEUDS P2 P3, REPERE GLOBAL'
                         )

IMPR_TABLE(   TABLE=P2L_G,
                NOM_PARA=( 'ABSC_CURV', 'SIXX', 'SIYY', 'SIZZ', 'SIXY', )
             )
# ---------
M2_L=MACR_LIGN_COUPE( RESULTAT= RESU,NOM_CHAM = 'SIGM_ELNO',
                      LIGN_COUPE = _F(TYPE='GROUP_NO', REPERE='LOCAL',
                                      VECT_Y = ( 1., 1.,),
                                      OPERATION='EXTRACTION',
                                      GROUP_NO='LIST2',
                                      INTITULE='M2_L: LISTE DE NOEUDS P1 P2, REPERE LOCAL',
                                      DISTANCE_MAX=0.001,),)
IMPR_TABLE(TABLE=M2_L,
   NOM_PARA=( 'ABSC_CURV', 'SIXX', 'SIYY', 'SIZZ', 'SIXY', )
             )

P2_L=POST_RELEVE_T(  ACTION=_F(  CHEMIN = CHEM2,
                                    INTITULE = 'LOCAL',
                                    RESULTAT = RESU,
                                    TOUT_CMP = 'OUI',
                                    NOM_CHAM = 'SIGM_ELNO',
                                    OPERATION = 'EXTRACTION',
                                    REPERE = 'LOCAL'),
            TITRE='P2_L: CHEMIN P2 P3, REPERE LOCAL'
                         )

IMPR_TABLE(   TABLE=P2_L,
                NOM_PARA=( 'ABSC_CURV', 'SIXX', 'SIYY', 'SIZZ', 'SIXY', )
             )
# ---------
M2_C=MACR_LIGN_COUPE( RESULTAT= RESU,NOM_CHAM = 'SIGM_ELNO',
                      LIGN_COUPE = _F(TYPE='GROUP_NO', REPERE = 'CYLINDRIQUE',
                                      ORIGINE = ( 0., 0.,),
                                      OPERATION='EXTRACTION',
                                      GROUP_NO='LIST2',
                                      INTITULE='M2L_C:  LISTE DE NOEUDS P2 P3, REPERE CYLINDRIQUE, ORIGINE: (0. 0. 0.), AXE_Z: (0. 0. 1.)',
                                      DISTANCE_MAX=0.001,),)
IMPR_TABLE(TABLE=M2_C,
   NOM_PARA=( 'ABSC_CURV', 'SIXX', 'SIYY', 'SIZZ', 'SIXY', )
             )


P2L_C=POST_RELEVE_T(  ACTION=_F(  GROUP_NO = 'LIST2',
                                    INTITULE = 'CYLINDR',
                                    RESULTAT = RESU,
                                    TOUT_CMP = 'OUI',
                                    NOM_CHAM = 'SIGM_ELNO',
                                    OPERATION = 'EXTRACTION',
                                    REPERE = 'CYLINDRIQUE',
                                    ORIGINE = ( 0., 0., 0., ),
                                    AXE_Z = ( 0., 0., 1., )),
           TITRE=( 'P2L_C: LISTE DE NOEUDS P2 P3, REPERE CYLINDRIQUE, ',
                     'ORIGINE: (0. 0. 0.), AXE_Z: (0. 0. 1.)', )
                         )

IMPR_TABLE(   TABLE=P2L_C,
                NOM_PARA=( 'ABSC_CURV', 'SIXX', 'SIYY', 'SIZZ', 'SIXY', )
             )
# ---------

M2_P=MACR_LIGN_COUPE( RESULTAT= RESU,NOM_CHAM = 'SIGM_ELNO',
                      LIGN_COUPE = _F(TYPE='GROUP_NO', REPERE = 'POLAIRE',
                                      OPERATION='EXTRACTION',
                                      GROUP_NO='LIST2',
                                      INTITULE='M2L_P:  LISTE DE NOEUDS P2 P3, REPERE POLAIRE',
                                      DISTANCE_MAX=0.001,),)

IMPR_TABLE(TABLE=M2_P,
   NOM_PARA=( 'ABSC_CURV', 'SIXX', 'SIYY', 'SIZZ', 'SIXY', )
             )



P2L_P=POST_RELEVE_T(  ACTION=_F(  GROUP_NO = 'LIST2',
                                    INTITULE = 'POLAIRE',
                                    RESULTAT = RESU,
                                    TOUT_CMP = 'OUI',
                                    NOM_CHAM = 'SIGM_ELNO',
                                    OPERATION = 'EXTRACTION',
                                    REPERE = 'POLAIRE'),
            TITRE='P2L_P: LISTE DE NOEUDS P2 P3, REPERE POLAIRE'
                         )

IMPR_TABLE(   TABLE=P2L_P,
                NOM_PARA=( 'ABSC_CURV', 'SIXX', 'SIYY', 'SIZZ', 'SIXY' ,)
             )

# ---------
M3_G=MACR_LIGN_COUPE( RESULTAT= RESU,NOM_CHAM = 'SIGM_ELNO',
                      LIGN_COUPE = _F(TYPE='GROUP_NO', REPERE='GLOBAL',
                                      OPERATION='EXTRACTION',
                                      GROUP_NO='LIST3',
                                      INTITULE='M3L_G: LISTE DE NOEUDS P4 P3, REPERE GLOBAL',
                                      DISTANCE_MAX=0.001,),)
IMPR_TABLE(TABLE=M3_G,
   NOM_PARA=( 'ABSC_CURV', 'SIXX', 'SIYY', 'SIZZ', 'SIXY', )
             )


P3L_G=POST_RELEVE_T(  ACTION=_F(  GROUP_NO = 'LIST3',
                                    INTITULE = 'GLOBAL',
                                    RESULTAT = RESU,
                                    TOUT_CMP = 'OUI',
                                    NOM_CHAM = 'SIGM_ELNO',
                                    OPERATION = 'EXTRACTION',
                                    REPERE = 'GLOBAL'),
         TITRE='P3L_G: LISTE DE NOEUDS P4 P3, REPERE GLOBAL'
                         )

IMPR_TABLE(   TABLE=P3L_G,
                NOM_PARA=( 'ABSC_CURV', 'SIXX', 'SIYY', 'SIZZ', 'SIXY', )
             )
# ---------

M3_L=MACR_LIGN_COUPE( RESULTAT= RESU,NOM_CHAM = 'SIGM_ELNO',
                      LIGN_COUPE = _F(TYPE='GROUP_NO', REPERE='LOCAL',
                                      VECT_Y = ( 1., 1., ),
                                      OPERATION='EXTRACTION',
                                      GROUP_NO='LIST3',
                                      INTITULE='M3_L: LISTE DE NOEUDS P4 P3, REPERE LOCAL',
                                      DISTANCE_MAX=0.001,),)
IMPR_TABLE(TABLE=M3_L,
   NOM_PARA=( 'ABSC_CURV', 'SIXX', 'SIYY', 'SIZZ', 'SIXY', )
             )

P3_L=POST_RELEVE_T(  ACTION=_F(  CHEMIN = CHEM3,
                                    INTITULE = 'LOCAL',
                                    RESULTAT = RESU,
                                    TOUT_CMP = 'OUI',
                                    NOM_CHAM = 'SIGM_ELNO',
                                    OPERATION = 'EXTRACTION',
                                    REPERE = 'LOCAL'),
         TITRE='P3_L: CHEMIN P4 P3, REPERE LOCAL'
                         )

IMPR_TABLE(   TABLE=P3_L,
                NOM_PARA=( 'ABSC_CURV', 'SIXX', 'SIYY', 'SIZZ', 'SIXY', )
             )

# ---------

M3_U=MACR_LIGN_COUPE( RESULTAT= RESU,NOM_CHAM = 'SIGM_ELNO',
                      LIGN_COUPE = _F(TYPE='GROUP_NO', REPERE = 'UTILISATEUR',
                                      ANGL_NAUT = ( 45., 0., 0., ),
                                      OPERATION='EXTRACTION',
                                      GROUP_NO='LIST3',
                                      INTITULE='M3_U: LISTE DE NOEUDS P4 P3, REPERE UTILISATEUR,ANGL_NAUT : ( 45. 0. 0. )',
                                      DISTANCE_MAX=0.001,),)
IMPR_TABLE(TABLE=M3_U,
   NOM_PARA=( 'ABSC_CURV', 'SIXX', 'SIYY', 'SIZZ', 'SIXY', )
             )


P3_U=POST_RELEVE_T(  ACTION=_F(  CHEMIN = CHEM3,
                                    INTITULE = 'UTILISAT',
                                    RESULTAT = RESU,
                                    TOUT_CMP = 'OUI',
                                    NOM_CHAM = 'SIGM_ELNO',
                                    OPERATION = 'EXTRACTION',
                                    REPERE = 'UTILISATEUR',
                                    ANGL_NAUT = ( 45., 0., 0., )),
         TITRE=( 'P3_U: CHEMIN P4 P3, REPERE UTILISATEUR, ',
                 'ANGL_NAUT : ( 45. 0. 0. )', )
                         )

IMPR_TABLE(   TABLE=P3_U,
                NOM_PARA=( 'ABSC_CURV', 'SIXX', 'SIYY', 'SIZZ', 'SIXY', )
             )

#
# ==> VECTEUR

N1_G=MACR_LIGN_COUPE( RESULTAT= RESU,NOM_CHAM = 'DEPL',
                      LIGN_COUPE = _F(TYPE='GROUP_NO', REPERE='GLOBAL',
                                      OPERATION='EXTRACTION',
                                      GROUP_NO='LIST1',
                                      INTITULE='N1_G: CHEMIN P1 P2, REPERE GLOBAL ',
                                      DISTANCE_MAX=0.001,),)
IMPR_TABLE(   TABLE=N1_G,
                NOM_PARA=( 'ABSC_CURV', 'DX', 'DY', )
             )


Z1_G=POST_RELEVE_T(  ACTION=_F(  CHEMIN = CHEM1,
                                    INTITULE = 'GLOBAL',
                                    RESULTAT = RESU,
                                    TOUT_CMP = 'OUI',
                                    NOM_CHAM = 'DEPL',
                                    OPERATION = 'EXTRACTION',
                                    REPERE = 'GLOBAL'),
         TITRE='Z1_G: CHEMIN P1 P2, REPERE GLOBAL'
                         )

IMPR_TABLE(   TABLE=Z1_G,
                NOM_PARA=( 'ABSC_CURV', 'DX', 'DY', )
             )

# ---------

N1_L=MACR_LIGN_COUPE( RESULTAT= RESU,NOM_CHAM = 'DEPL',
                      LIGN_COUPE = _F(TYPE='GROUP_NO', REPERE='LOCAL',
                                      VECT_Y = ( 1., 1., ),
                                      OPERATION='EXTRACTION',
                                      GROUP_NO='LIST1',
                                      INTITULE='N1_L: CHEMIN P1 P2 REPERE LOCAL',
                                      DISTANCE_MAX=0.001,),)
IMPR_TABLE(   TABLE=N1_L,
                NOM_PARA=( 'ABSC_CURV', 'DX', 'DY',  )
             )

Z1_L=POST_RELEVE_T(  ACTION=_F(  CHEMIN = CHEM1,
                                    INTITULE = 'LOCAL',
                                    RESULTAT = RESU,
                                    TOUT_CMP = 'OUI',
                                    NOM_CHAM = 'DEPL',
                                    OPERATION = 'EXTRACTION',
                                    REPERE = 'LOCAL'),
         TITRE='Z1_L: CHEMIN P1 P2, REPERE LOCAL'
                         )

IMPR_TABLE(   TABLE=Z1_L,
                NOM_PARA=( 'ABSC_CURV', 'DX', 'DY', )
             )
# ---------

N1_U=MACR_LIGN_COUPE( RESULTAT= RESU,NOM_CHAM = 'DEPL',
                      LIGN_COUPE = _F(TYPE='GROUP_NO', REPERE='UTILISATEUR',ANGL_NAUT = ( 0., 0., 0., ),
                                      OPERATION='EXTRACTION',
                                      GROUP_NO='LIST1',
                                      INTITULE='N1_U: CHEMIN P1 P2, REPERE UTILISATEUR,ANGL_NAUT : ( 0. 0. 0. )',
                                      DISTANCE_MAX=0.001,),)
IMPR_TABLE(   TABLE=N1_U,
                NOM_PARA=( 'ABSC_CURV', 'DX', 'DY', )
             )


Z1_U=POST_RELEVE_T(  ACTION=_F(  CHEMIN = CHEM1,
                                    INTITULE = 'UTILISAT',
                                    RESULTAT = RESU,
                                    TOUT_CMP = 'OUI',
                                    NOM_CHAM = 'DEPL',
                                    OPERATION = 'EXTRACTION',
                                    REPERE = 'UTILISATEUR',
                                    ANGL_NAUT = ( 0., 0., 0., )),
         TITRE=( 'Z1_U: CHEMIN P1 P2, REPERE UTILISATEUR, ',
                 'ANGL_NAUT : ( 0. 0. 0. )', )
                         )

IMPR_TABLE(   TABLE=Z1_U,
                NOM_PARA=( 'ABSC_CURV', 'DX', 'DY', )
             )
# ---------

N2_G=MACR_LIGN_COUPE( RESULTAT= RESU,NOM_CHAM = 'DEPL',
                      LIGN_COUPE = _F(TYPE='GROUP_NO', REPERE='GLOBAL',
                                      OPERATION='EXTRACTION',
                                      GROUP_NO='LIST2',
                                      INTITULE='N2_G:  CHEMIN P2 P3, REPERE GLOBAL',
                                      DISTANCE_MAX=0.001,),)
IMPR_TABLE(   TABLE=N2_G,
                NOM_PARA=( 'ABSC_CURV', 'DX', 'DY', )
             )

Z2_G=POST_RELEVE_T(  ACTION=_F(  CHEMIN = CHEM2,
                                    INTITULE = 'GLOBAL',
                                    RESULTAT = RESU,
                                    TOUT_CMP = 'OUI',
                                    NOM_CHAM = 'DEPL',
                                    OPERATION = 'EXTRACTION',
                                    REPERE = 'GLOBAL'),
         TITRE='Z2_G: CHEMIN P2 P3, REPERE GLOBAL'
                         )

IMPR_TABLE(   TABLE=Z2_G,
                NOM_PARA=( 'ABSC_CURV', 'DX', 'DY', )
             )
# ---------

N2_L=MACR_LIGN_COUPE( RESULTAT= RESU,NOM_CHAM = 'DEPL',
                      LIGN_COUPE = _F(TYPE='GROUP_NO', REPERE='LOCAL',
                                      VECT_Y = ( 1., 1., ),
                                      OPERATION='EXTRACTION',
                                      GROUP_NO='LIST2',
                                      INTITULE='N2_L: CHEMIN P2 P3 REPERE LOCAL',
                                      DISTANCE_MAX=0.001,),)
IMPR_TABLE(   TABLE=N2_L,
                NOM_PARA=( 'ABSC_CURV', 'DX', 'DY',)
             )


Z2_L=POST_RELEVE_T(  ACTION=_F(  CHEMIN = CHEM2,
                                    INTITULE = 'LOCAL',
                                    RESULTAT = RESU,
                                    TOUT_CMP = 'OUI',
                                    NOM_CHAM = 'DEPL',
                                    OPERATION = 'EXTRACTION',
                                    REPERE = 'LOCAL'),
         TITRE='Z2_L: CHEMIN P2 P3, REPERE LOCAL'
                         )

IMPR_TABLE(   TABLE=Z2_L,
                NOM_PARA=( 'ABSC_CURV', 'DX', 'DY', )
             )
# ---------

N2_C=MACR_LIGN_COUPE( RESULTAT= RESU,NOM_CHAM = 'DEPL',
                      LIGN_COUPE = _F(TYPE='GROUP_NO', REPERE = 'CYLINDRIQUE',
                                      ORIGINE = ( 0., 0.,),
                                      OPERATION='EXTRACTION',
                                      GROUP_NO='LIST2',
                                      INTITULE='N2L_C:  LISTE DE NOEUDS P2 P3, REPERE CYLINDRIQUE, ORIGINE: (0. 0. 0.), AXE_Z: (0. 0. 1.)',
                                      DISTANCE_MAX=0.001,),)

IMPR_TABLE(   TABLE=N2_C,
                NOM_PARA=( 'ABSC_CURV', 'DX', 'DY', )
             )


Z2L_C=POST_RELEVE_T(  ACTION=_F(  GROUP_NO = 'LIST2',
                                    INTITULE = 'CYLINDR',
                                    RESULTAT = RESU,
                                    TOUT_CMP = 'OUI',
                                    NOM_CHAM = 'DEPL',
                                    OPERATION = 'EXTRACTION',
                                    REPERE = 'CYLINDRIQUE',
                                    ORIGINE = ( 0., 0., 0., ),
                                    AXE_Z = ( 0., 0., 1., )),
         TITRE=( 'Z2L_C: LISTE DE NOEUDS P2 P3, REPERE CYLINDRIQUE, ',
                 'ORIGINE: (0. 0. 0.), AXE_Z: (0. 0. 1.)', )
                         )

IMPR_TABLE(   TABLE=Z2L_C,
                NOM_PARA=( 'ABSC_CURV', 'DX', 'DY', )
             )
# ---------

N2_P=MACR_LIGN_COUPE( RESULTAT= RESU,NOM_CHAM = 'DEPL',
                      LIGN_COUPE = _F(TYPE='GROUP_NO', REPERE = 'POLAIRE',
                                      OPERATION='EXTRACTION',
                                      GROUP_NO='LIST2',
                                      INTITULE='N2L_P:  LISTE DE NOEUDS P2 P3, REPERE POLAIRE',
                                      DISTANCE_MAX=0.001,),)

IMPR_TABLE(   TABLE=N2_P,
                NOM_PARA=( 'ABSC_CURV', 'DX', 'DY',)
             )


Z2L_P=POST_RELEVE_T(  ACTION=_F(  GROUP_NO = 'LIST2',
                                    INTITULE = 'POLAIRE',
                                    RESULTAT = RESU,
                                    TOUT_CMP = 'OUI',
                                    NOM_CHAM = 'DEPL',
                                    OPERATION = 'EXTRACTION',
                                    REPERE = 'POLAIRE'),
         TITRE='Z2L_P: LISTE DE NOEUDS P2 P3, REPERE POLAIRE'
                         )

IMPR_TABLE(   TABLE=Z2L_P,
                NOM_PARA=( 'ABSC_CURV', 'DX', 'DY',)
             )

# ---------

N3_G=MACR_LIGN_COUPE( RESULTAT= RESU,NOM_CHAM = 'DEPL',
                      LIGN_COUPE = _F(TYPE='GROUP_NO', REPERE='GLOBAL',
                                      OPERATION='EXTRACTION',
                                      GROUP_NO='LIST3',
                                      INTITULE='N3_G:  CHEMIN P4 P3, REPERE GLOBAL',
                                      DISTANCE_MAX=0.001,),)
IMPR_TABLE(   TABLE=N3_G,
                NOM_PARA=( 'ABSC_CURV', 'DX', 'DY', )
             )

Z3_G=POST_RELEVE_T(  ACTION=_F(  CHEMIN = CHEM3,
                                    INTITULE = 'GLOBAL',
                                    RESULTAT = RESU,
                                    TOUT_CMP = 'OUI',
                                    NOM_CHAM = 'DEPL',
                                    OPERATION = 'EXTRACTION',
                                    REPERE = 'GLOBAL'),
          TITRE='Z3_G: CHEMIN P4 P3, REPERE GLOBAL'
                         )

IMPR_TABLE(   TABLE=Z3_G,
                NOM_PARA=( 'ABSC_CURV', 'DX', 'DY', )
             )
# ---------


N3_L=MACR_LIGN_COUPE( RESULTAT= RESU,NOM_CHAM = 'DEPL',
                      LIGN_COUPE = _F(TYPE='GROUP_NO', REPERE='LOCAL',
                                      VECT_Y = ( 1., 1., ),
                                      OPERATION='EXTRACTION',
                                      GROUP_NO='LIST3',
                                      INTITULE='N3_L: CHEMIN P4 P3 REPERE LOCAL',
                                      DISTANCE_MAX=0.001,),)
IMPR_TABLE(   TABLE=N3_L,
                NOM_PARA=( 'ABSC_CURV', 'DX', 'DY',)
             )



Z3_L=POST_RELEVE_T(  ACTION=_F(  CHEMIN = CHEM3,
                                    INTITULE = 'LOCAL',
                                    RESULTAT = RESU,
                                    TOUT_CMP = 'OUI',
                                    NOM_CHAM = 'DEPL',
                                    OPERATION = 'EXTRACTION',
                                    REPERE = 'LOCAL'),
         TITRE='Z3_L: CHEMIN P4 P3, REPERE LOCAL'
                         )

IMPR_TABLE(   TABLE=Z3_L,
                NOM_PARA=( 'ABSC_CURV', 'DX', 'DY', )
             )
# ---------
N3_U=MACR_LIGN_COUPE( RESULTAT= RESU,NOM_CHAM = 'DEPL',
                      LIGN_COUPE = _F(TYPE='GROUP_NO', REPERE='UTILISATEUR',ANGL_NAUT = ( 45., 0., 0., ),
                                      OPERATION='EXTRACTION',
                                      GROUP_NO='LIST3',
                                      INTITULE='N3_U: CHEMIN P1 P2, REPERE UTILISATEUR,ANGL_NAUT : ( 45. 0. 0. )',
                                      DISTANCE_MAX=0.001,),)
IMPR_TABLE(   TABLE=N3_U,
                NOM_PARA=( 'ABSC_CURV', 'DX', 'DY', )
             )

Z3_U=POST_RELEVE_T(  ACTION=_F(  CHEMIN = CHEM3,
                                    INTITULE = 'UTILISAT',
                                    RESULTAT = RESU,
                                    TOUT_CMP = 'OUI',
                                    NOM_CHAM = 'DEPL',
                                    OPERATION = 'EXTRACTION',
                                    REPERE = 'UTILISATEUR',
                                    ANGL_NAUT = ( 45., 0., 0., )),
         TITRE=( 'Z3_U: CHEMIN P4 P3, REPERE UTILISATEUR, ',
                 'ANGL_NAUT : ( 45. 0. 0. )', )
                         )

IMPR_TABLE(   TABLE=Z3_U,
                NOM_PARA=( 'ABSC_CURV', 'DX', 'DY', )
             )

#======================================================================
#
#                     OPERANDE  TRAC_NOR
#
#======================================================================
#
# ==> TENSEUR

O1_TN=MACR_LIGN_COUPE( RESULTAT= RESU,NOM_CHAM = 'SIGM_NOEU',
                      LIGN_COUPE = _F(TYPE='GROUP_NO', REPERE='GLOBAL',GROUP_NO='LIST1',
                                      OPERATION='EXTRACTION',TRAC_NOR = 'OUI',
                                      NOM_CMP = ( 'SIXX', 'SIYY', 'SIZZ', 'SIXY', ),
                                      INTITULE='O1_TN:LISTE DE NOEUDS P1 P2, TRAC_NOR ',
                                      DISTANCE_MAX=0.001,),)

IMPR_TABLE(   TABLE=O1_TN,
             NOM_PARA=( 'ABSC_CURV', 'TR_NOR_1', 'TR_NOR_2', 'TR_NOR_3', )
             )

W1_TN=POST_RELEVE_T(  ACTION=_F(  CHEMIN = CHEM1,
                                    INTITULE = 'TRAC_NOR',
                                    RESULTAT = RESU,
               NOM_CMP = ( 'SIXX', 'SIYY', 'SIZZ', 'SIXY', ),
                                    NOM_CHAM = 'SIGM_ELNO',
                                    OPERATION = 'EXTRACTION',
                                    TRAC_NOR = 'OUI'),
             TITRE='W1_TN: CHEMIN P1 P2, TRAC_NOR '
                         )

IMPR_TABLE(   TABLE=W1_TN,
             NOM_PARA=( 'ABSC_CURV', 'TR_NOR_1', 'TR_NOR_2', 'TR_NOR_3', )
             )


#
# ==> VECTEUR
#     VOIR TEST TPLL01A

#======================================================================
#
#                     OPERANDE  TRAC_DIR
#
#======================================================================
#
# ==> TENSEUR

O1_TDX=MACR_LIGN_COUPE( RESULTAT= RESU,NOM_CHAM = 'SIGM_NOEU',
                      LIGN_COUPE = _F(TYPE='GROUP_NO', REPERE='GLOBAL',
                                      OPERATION='EXTRACTION',TRAC_DIR = 'OUI',
                                      NOM_CMP = ( 'SIXX', 'SIYY', 'SIZZ', 'SIXY', ),
                                      GROUP_NO='LIST1',DIRECTION = ( 1., 0., 0., ),
                                      INTITULE='O1_TDX: CHEMIN P1 P2, TRAC_DIR DIRECTION: (1. 0. 0.)',
                                      DISTANCE_MAX=0.001,),)

IMPR_TABLE(   TABLE=O1_TDX,
              NOM_PARA=( 'ABSC_CURV', 'TR_DIR_1', 'TR_DIR_2', 'TR_DIR_3', )
             )

W1_TDX=POST_RELEVE_T(  ACTION=_F(  CHEMIN = CHEM1,
                                    INTITULE = 'TRAC_DIRX',
                                    RESULTAT = RESU,
               NOM_CMP = ( 'SIXX', 'SIYY', 'SIZZ', 'SIXY', ),
                                    NOM_CHAM = 'SIGM_ELNO',
                                    OPERATION = 'EXTRACTION',
                                    TRAC_DIR = 'OUI',
                                    DIRECTION = ( 1., 0., 0., )),
             TITRE=( 'W1_TDX: CHEMIN  P1 P2, TRAC_DIR, ',
                     'DIRECTION: (1. 0. 0.)', )
                         )

IMPR_TABLE(   TABLE=W1_TDX,
              NOM_PARA=( 'ABSC_CURV', 'TR_DIR_1', 'TR_DIR_2', 'TR_DIR_3', )
             )

# ---------

O1_TDY=MACR_LIGN_COUPE( RESULTAT= RESU,NOM_CHAM = 'SIGM_NOEU',
                      LIGN_COUPE = _F(TYPE='GROUP_NO', REPERE='GLOBAL',
                                      OPERATION='EXTRACTION',TRAC_DIR = 'OUI',
                                      NOM_CMP = ( 'SIXX', 'SIYY', 'SIZZ', 'SIXY', ),
                                      GROUP_NO='LIST1',DIRECTION = ( 0., 1., 0., ),
                                      INTITULE='O1_TDY: CHEMIN P1 P2, TRAC_DIR DIRECTION: (0. 1. 0.)',
                                      DISTANCE_MAX=0.001,),)

IMPR_TABLE(   TABLE=O1_TDY,
              NOM_PARA=( 'ABSC_CURV', 'TR_DIR_1', 'TR_DIR_2', 'TR_DIR_3', )
             )

W1_TDY=POST_RELEVE_T(  ACTION=_F(  CHEMIN = CHEM1,
                                    INTITULE = 'TRAC_DIRY',
                                    RESULTAT = RESU,
               NOM_CMP = ( 'SIXX', 'SIYY', 'SIZZ', 'SIXY', ),
                                    NOM_CHAM = 'SIGM_ELNO',
                                    OPERATION = 'EXTRACTION',
                                    TRAC_DIR = 'OUI',
                                    DIRECTION = ( 0., 1., 0., )),
             TITRE=( 'W1_TDY: CHEMIN P1 P2, TRAC_DIR, ',
                     'DIRECTION: (0. 1. 0.)', )
                         )

IMPR_TABLE(   TABLE=W1_TDY,
              NOM_PARA=( 'ABSC_CURV', 'TR_DIR_1', 'TR_DIR_2', 'TR_DIR_3', )
             )
# ---------
O1_TDXY=MACR_LIGN_COUPE( RESULTAT= RESU,NOM_CHAM = 'SIGM_NOEU',
                      LIGN_COUPE = _F(TYPE='GROUP_NO', REPERE='GLOBAL',
                                      OPERATION='EXTRACTION',TRAC_DIR = 'OUI',
                                      NOM_CMP = ( 'SIXX', 'SIYY', 'SIZZ', 'SIXY',  ),
                                      GROUP_NO='LIST1',DIRECTION = ( 1., 1., 0., ),
                                      INTITULE='O1_TDXY: CHEMIN P1 P2, TRAC_DIR DIRECTION: (0. 1. 0.)',
                                      DISTANCE_MAX=0.001,),)

IMPR_TABLE(   TABLE=O1_TDXY,
              NOM_PARA=( 'ABSC_CURV', 'TR_DIR_1', 'TR_DIR_2', 'TR_DIR_3', )
             )

W1_TDXY=POST_RELEVE_T(  ACTION=_F(  CHEMIN = CHEM1,
                                    INTITULE = 'TRAC_DIRXY',
                                    RESULTAT = RESU,
               NOM_CMP = ( 'SIXX', 'SIYY', 'SIZZ', 'SIXY', ),
                                    NOM_CHAM = 'SIGM_ELNO',
                                    OPERATION = 'EXTRACTION',
                                    TRAC_DIR = 'OUI',
                                    DIRECTION = ( 1., 1., 0., )),
             TITRE=( 'W1_TDXY: CHEMIN P1 P2, TRAC_DIR, ',
                     'DIRECTION: (1. 1. 0.)', )
                         )

IMPR_TABLE(   TABLE=W1_TDXY,
              NOM_PARA=( 'ABSC_CURV', 'TR_DIR_1', 'TR_DIR_2', 'TR_DIR_3', )
             )

#
# ==> VECTEUR

P1_TDX=MACR_LIGN_COUPE( RESULTAT= RESU,NOM_CHAM = 'DEPL',
                      LIGN_COUPE = _F(TYPE='GROUP_NO', REPERE='GLOBAL',
                                      OPERATION='EXTRACTION',TRAC_DIR = 'OUI',
                                      NOM_CMP = ( 'DX', 'DY', ),
                                      GROUP_NO='LIST1',DIRECTION = ( 1., 0., 0., ),
                                      INTITULE='P1_TDX: CHEMIN P1 P2, TRAC_DIR DIRECTION: (1. 0. 0.)',
                                      DISTANCE_MAX=0.001,),)

IMPR_TABLE(   TABLE=P1_TDX,
              NOM_PARA=( 'ABSC_CURV', 'TRAC_DIR', )
             )

Z1_TDX=POST_RELEVE_T(  ACTION=_F(  CHEMIN = CHEM1,
                                    INTITULE = 'TRAC_DIRX',
                                    RESULTAT = RESU,
                                    NOM_CMP = ( 'DX', 'DY', ),
                                    NOM_CHAM = 'DEPL',
                                    OPERATION = 'EXTRACTION',
                                    TRAC_DIR = 'OUI',
                                    DIRECTION = ( 1., 0., 0., )),
             TITRE=( 'Z1_TDX: CHEMIN P1 P2, TRAC_DIR, ',
                     'DIRECTION: (1. 0. 0.)', )
                         )

IMPR_TABLE(   TABLE=Z1_TDX,
                NOM_PARA=( 'ABSC_CURV', 'TRAC_DIR', )
             )


#======================================================================
#
#                     OPERANDE  INVARIANT
#
#======================================================================
#
INVA_M=MACR_LIGN_COUPE( RESULTAT= RESU,NOM_CHAM = 'SIGM_NOEU',
                      LIGN_COUPE = _F(TYPE='GROUP_NO', REPERE='GLOBAL',
                                      OPERATION='EXTRACTION',INVARIANT = 'OUI',
                                      GROUP_NO='LIST1',
                                      INTITULE='INVA_M: LISTE DE NOEUDS P1 P2, INVARIANT, A PARTIR DE SIGM_NOEU',
                                      DISTANCE_MAX=0.001,),)

IMPR_TABLE(   TABLE=INVA_M,
              NOM_PARA=( 'NOM_CHAM', 'ABSC_CURV', 'VMIS', 'TRESCA', 'TRACE', 'DETER'),
             )


INVA_P = POST_RELEVE_T(  ACTION=_F( GROUP_NO = 'LIST1',
                                     INTITULE = 'INVARIANT',
                                     RESULTAT = RESU,
                                     NOM_CHAM = 'SIGM_NOEU',
                                     OPERATION = 'EXTRACTION',
                                     INVARIANT = 'OUI',
                                  ),
             TITRE=( 'INVA_P: LISTE DE NOEUDS P1 P2, INVARIANT, ',
                     'A PARTIR DE SIGM_NOEU', )
                         )

IMPR_TABLE(   TABLE=INVA_P,
              NOM_PARA=( 'NOM_CHAM', 'ABSC_CURV', 'VMIS', 'TRESCA', 'TRACE', 'DETER'),
             )


#======================================================================
#
#                     OPERANDE  ELEM_PRINCIPAUX
#
#======================================================================
#
PRIN_M=MACR_LIGN_COUPE( RESULTAT= RESU,NOM_CHAM = 'SIGM_NOEU',
                      LIGN_COUPE = _F(TYPE='GROUP_NO', REPERE='GLOBAL',
                                      OPERATION='EXTRACTION',ELEM_PRINCIPAUX = 'OUI',
                                      GROUP_NO='LIST1',
                                      INTITULE='PRIN_M:LISTE DE NOEUDS P1 P2, ELEM_PRINCIPAUX A PARTIR DE SIGM_NOEU',
                                      DISTANCE_MAX=0.001,),)

IMPR_TABLE(   TABLE=PRIN_M,
              NOM_PARA=( 'NOM_CHAM', 'ABSC_CURV', 'PRIN_1', 'PRIN_2', 'PRIN_3' )
             )


PRIN_P = POST_RELEVE_T(  ACTION=_F( GROUP_NO = 'LIST1',
                                     INTITULE = 'INVARIANT',
                                     RESULTAT = RESU,
                                     NOM_CHAM = 'SIGM_NOEU',
                                     OPERATION = 'EXTRACTION',
                                     ELEM_PRINCIPAUX = 'OUI',
                                  ),
             TITRE=( 'PRIN_P: LISTE DE NOEUDS P1 P2, ELEM_PRINCIPAUX, ',
                     'A PARTIR DE SIGM_NOEU', )
                         )

IMPR_TABLE(   TABLE=PRIN_P,
              NOM_PARA=( 'NOM_CHAM', 'ABSC_CURV', 'PRIN_1', 'PRIN_2', 'PRIN_3' )
             )



FIN( )
#
