# MODIF  DATE 14/12/2010   AUTEUR PELLET J.PELLET 
# TITRE TEST DE VALIDATION D'ASTER :
# zzzz119a.para = tps_job 60 mem_job 64Mo ncpus 1 liste_test S
#            CONFIGURATION MANAGEMENT OF EDF VERSION
# ======================================================================
# COPYRIGHT (C) 1991 - 2010  EDF R&D                  WWW.CODE-ASTER.ORG
# THIS PROGRAM IS FREE SOFTWARE; YOU CAN REDISTRIBUTE IT AND/OR MODIFY
# IT UNDER THE TERMS OF THE GNU GENERAL PUBLIC LICENSE AS PUBLISHED BY
# THE FREE SOFTWARE FOUNDATION; EITHER VERSION 2 OF THE LICENSE, OR
# (AT YOUR OPTION) ANY LATER VERSION.
#
# THIS PROGRAM IS DISTRIBUTED IN THE HOPE THAT IT WILL BE USEFUL, BUT
# WITHOUT ANY WARRANTY; WITHOUT EVEN THE IMPLIED WARRANTY OF
# MERCHANTABILITY OR FITNESS FOR A PARTICULAR PURPOSE. SEE THE GNU
# GENERAL PUBLIC LICENSE FOR MORE DETAILS.
#
# YOU SHOULD HAVE RECEIVED A COPY OF THE GNU GENERAL PUBLIC LICENSE
# ALONG WITH THIS PROGRAM; IF NOT, WRITE TO EDF R&D CODE_ASTER,
#    1 AVENUE DU GENERAL DE GAULLE, 92141 CLAMART CEDEX, FRANCE.
# ======================================================================
#      PROJ_CHAMP METHODE:'COLLOCATION' POUR DES SURFACES EN 3D
#      PROJ_CHAMP METHODE:'COLLOCATION' AVEC MOT-CLE VIS_A_VIS
DEBUT(CODE=_F(NOM='ZZZZ119A', NIV_PUB_WEB='INTERNET'), DEBUG=_F(SDVERI='OUI'),
      IGNORE_ALARM=('CALCULEL2_63','CALCULEL2_64'))

# <CALCULEL2_63> : DANS UN MODELE, IL EXISTE DES ELEMENTS DE TYPE "BORD" QUI N'ONT PAS DE VOISIN AVEC RIGIDITE
# <CALCULEL2_64> : DANS UN MODELE, IL N'Y A AUCUN ELEMENT AVEC AVEC RIGIDITE
#  LE MODELE PROVOQUANT CES ALARMES N'EST PAS UN VRAI MODELE. IL NE SERT QU'A PROJ_CHAMP

# ======================================================
#
#  TEST ZZZZ119A
#
#  PROJ_CHAMP METHODE:'COLLOCATION' POUR DES SURFACES EN 3D
#
#
#  ON FAIT UN CALCUL (DE COQUES DKQ) SUR UN QUART DE CYLINDRE
#  ON PROJETTE LE CHAMP DE DEPLACEMENT OBTENU (CH1) SUR UN AUTRE
#  MAILLAGE DU MEME QUART DE CYLINDRE (TRIA6)
#    CH1 -> CH2
#  PUIS ON RE-PROJETTE SUR LE 1ER MAILLAGE
#    CH2 -> CH1BIS
#  ON COMPARE ALORS LES CHAMPS CH1 ET CH1BIS SUR 3 NOEUDS
#
#
# ======================================================


PRE_GIBI()

MA=LIRE_MAILLAGE( )

MA=DEFI_GROUP( reuse=MA,   MAILLAGE=MA,
  CREA_GROUP_MA=_F(  NOM = 'TOUTB', TOUT = 'OUI'))

MA=DEFI_GROUP(reuse=MA, MAILLAGE=MA,
                     CREA_GROUP_NO=_F(  GROUP_MA = 'AB1') )
MO1=AFFE_MODELE(     MAILLAGE=MA,
       AFFE=_F(  GROUP_MA = ('MA1','MB1',),
       MODELISATION = 'DKT', PHENOMENE = 'MECANIQUE'))

MO2=AFFE_MODELE(     MAILLAGE=MA,
       AFFE=_F(  GROUP_MA = ('MA2','MB2',),
       MODELISATION = '3D', PHENOMENE = 'MECANIQUE'))

MATER=DEFI_MATERIAU(  ELAS=_F(  E = 1.E6,      NU = 0.3) )

CHMAT=AFFE_MATERIAU(   MAILLAGE=MA,
                           AFFE=_F(  TOUT = 'OUI',   MATER = MATER) )

CHARGE=AFFE_CHAR_MECA(  MODELE=MO1,DDL_IMPO=(
              _F( GROUP_NO = 'AB1',  DX = 0.,  DY = 0.,  DZ = 0.),
              _F( GROUP_NO = 'AB1',  DRX = 0.,  DRY = 0.,  DRZ = 0.)),FORCE_COQUE=(
               _F( GROUP_MA = 'MA1',      PRES = 2.),
               _F( GROUP_MA = 'MB1',      PRES = -2.))
              )

CARELEM=AFFE_CARA_ELEM(   MODELE=MO1,
              COQUE=_F(  GROUP_MA = 'TOUTB', EPAIS = 0.2,  ANGL_REP = (0., 0.,)))


# remarque : on fait un faux transitoire (2 instants identiques) pour pouvoir tester
#            les mots cle NUME_ODRE et INST de PROJ_CHAMP
LINST=DEFI_LIST_REEL(VALE=(1.,3.),)
CH1=MECA_STATIQUE(MODELE=MO1, CHAM_MATER=CHMAT,  CARA_ELEM=CARELEM, LIST_INST=LINST,
                               EXCIT=_F(  CHARGE = CHARGE)
                            )

FIN(FORMAT_HDF='OUI');
