# MODIF  DATE 19/05/2011   AUTEUR DELMAS J.DELMAS 
# TITRE COUPLAGE ASTER_HOMARD - CAS BIDIMENSIONNEL EN TRANSITOIRE
# zzzz121c.para = tps_job 60 mem_job 64Mo ncpus 1 liste_test R
#            CONFIGURATION MANAGEMENT OF EDF VERSION
# ======================================================================
# COPYRIGHT (C) 1991 - 2011  EDF R&D                  WWW.CODE-ASTER.ORG
# THIS PROGRAM IS FREE SOFTWARE; YOU CAN REDISTRIBUTE IT AND/OR MODIFY
# IT UNDER THE TERMS OF THE GNU GENERAL PUBLIC LICENSE AS PUBLISHED BY
# THE FREE SOFTWARE FOUNDATION; EITHER VERSION 2 OF THE LICENSE, OR
# (AT YOUR OPTION) ANY LATER VERSION.
#
# THIS PROGRAM IS DISTRIBUTED IN THE HOPE THAT IT WILL BE USEFUL, BUT
# WITHOUT ANY WARRANTY; WITHOUT EVEN THE IMPLIED WARRANTY OF
# MERCHANTABILITY OR FITNESS FOR A PARTICULAR PURPOSE. SEE THE GNU
# GENERAL PUBLIC LICENSE FOR MORE DETAILS.
#
# YOU SHOULD HAVE RECEIVED A COPY OF THE GNU GENERAL PUBLIC LICENSE
# ALONG WITH THIS PROGRAM; IF NOT, WRITE TO EDF R&D CODE_ASTER,
#    1 AVENUE DU GENERAL DE GAULLE, 92141 CLAMART CEDEX, FRANCE.
# ======================================================================
# RESPONSABLE GNICOLAS G.NICOLAS
# Attention :ceci est un test de non regression et non pas d'evaluation
# de l'adaptation de maillage.
# . Information
# . Adaptation
# . Mise a jour du champ de temperature
# . Cas 2D
# . Elements SEG3, TRIA6
# . GROUP_NO, GROUP_MA
#
DEBUT(CODE=_F(NOM='ZZZZ121C', NIV_PUB_WEB='INTERNET'), DEBUG=_F(SDVERI='OUI'))
#
# 1. LES INVARIANTS
# 1.1. DEFINITION DES MATERIAUX
#
MATER1=DEFI_MATERIAU(
           THER=_F(  LAMBDA = 400.,    RHO_CP = 1.,  ),
           ELAS=_F(  E = 180000., NU = 0.30, ALPHA = 15.E-6, RHO = 7700.,   ) )
MATER2=DEFI_MATERIAU(
           THER=_F(  LAMBDA = 600.,    RHO_CP = 1.,  ),
           ELAS=_F(  E = 220000., NU = 0.33, ALPHA = 16.E-6, RHO = 8300.,   ) )
#
# 1.2. LES LISTES DES INSTANTS
#
INSTZERO=DEFI_LIST_REEL(DEBUT=0.,INTERVALLE=_F(  JUSQU_A =  4.,   PAS = 2.,   ) )
#
INSTUN  =DEFI_LIST_REEL(DEBUT=4.,INTERVALLE=_F(  JUSQU_A =  8.,   PAS = 2.,   ) )
#
INSTDEUX=DEFI_LIST_REEL(DEBUT=8.,INTERVALLE=_F(  JUSQU_A = 12.,   PAS = 2.,   ) )
#
INSTTROI=DEFI_LIST_REEL(DEBUT=12.,INTERVALLE=_F(  JUSQU_A = 16.,   PAS = 2.,   ) )
#
# 2. LES MAILLAGES DE DEPART
#
# 2.1. LECTURE DU MAILLAGE EN DEGRE 1
#
MZERO_1=LIRE_MAILLAGE( )
#
# 2.2. LE MEME MAILLAGE EN DEGRE 2
#
MZERO_2=CREA_MAILLAGE(MAILLAGE=MZERO_1,
                      LINE_QUAD=_F(TOUT='OUI',),);
#
# 3. CALCUL SUR LE MAILLAGE ZERO
# 3.1. LA THERMIQUE
# 3.1.1. MISE EN PLACE DES MATERIAUX
#
MAZERO_T=AFFE_MATERIAU(    MAILLAGE=MZERO_1,AFFE=(
       _F(  GROUP_MA = 'MOITIE1',    MATER = MATER1,      ),
       _F(  GROUP_MA = 'MOITIE2',    MATER = MATER2,     ))
                         )
#
# 3.1.2. MODELE
#
MOTHZERO=AFFE_MODELE(    MAILLAGE=MZERO_1,
  AFFE=_F(  TOUT = 'OUI',   PHENOMENE = 'THERMIQUE',   MODELISATION = 'PLAN_DIAG',  ))
#
# 3.1.3. CHARGEMENT
#
CHTHZERO=AFFE_CHAR_THER(    MODELE=MOTHZERO,
    TEMP_IMPO=_F(  GROUP_NO = 'ORIGINE',     TEMP = 200.0,    ),
    SOURCE=(_F(  GROUP_MA = 'MOITIE1',    SOUR = 18000.,    ),
            _F(  GROUP_MA = 'MOITIE2',    SOUR = 22000.,    )),
    ECHANGE=_F( GROUP_MA = 'BORD_DRO',  COEF_H = 500.,  TEMP_EXT = 310., )
                         )
#
# 3.1.4. RESOLUTION
#
RETHZERO=THER_LINEAIRE( MODELE=MOTHZERO,
                        CHAM_MATER=MAZERO_T,
                        EXCIT=_F(  CHARGE = CHTHZERO,   ),
                        ETAT_INIT=_F(  STATIONNAIRE = 'OUI',   ),
                        INCREMENT=_F(  LIST_INST = INSTZERO,   )
                      )
#
# 3.2. LA MECANIQUE

# 3.2.1. MODELE
#
MOMEZERO=AFFE_MODELE(    MAILLAGE=MZERO_2,
  AFFE=_F(  TOUT = 'OUI',   PHENOMENE = 'MECANIQUE',   MODELISATION = 'D_PLAN',  ))
#
MZERO_2=MODI_MAILLAGE( reuse=MZERO_2,   MAILLAGE=MZERO_2,
                         ORIE_PEAU_2D=_F(  GROUP_MA = ('BORD_GAU', 'BORD_SUP',),  )
                       )
#
# 3.2.2. PROJECTION DE LA TEMPERATURE DU MAILLAGE EN DEGRE 1 VERS DEGRE 2
#
##IMPR_RESU ( FORMAT='RESULTAT', RESU=_F( RESULTAT=RETHZERO,NOM_CHAM='TEMP') ) ;
TZERO_2=PROJ_CHAMP(METHODE='COLLOCATION',
                    RESULTAT=RETHZERO,
                    MODELE_1=MOTHZERO,
                    MODELE_2=MOMEZERO,
                    TOUT_ORDRE='OUI')
###IMPR_RESU ( FORMAT='RESULTAT', RESU=_F( RESULTAT=TZERO_2,) ) ;
#
# 3.2.3. MISE EN PLACE DES MATERIAUX
#
MAZERO_M=AFFE_MATERIAU(    MAILLAGE=MZERO_2,AFFE=(
       _F(  GROUP_MA = 'MOITIE1',    MATER = MATER1,    ),
       _F(  GROUP_MA = 'MOITIE2',    MATER = MATER2,    )),
           AFFE_VARC=_F(TOUT='OUI',
                        EVOL=TZERO_2,
                        NOM_VARC='TEMP',
                        NOM_CHAM='TEMP',
                        VALE_REF=20.),)

# 3.2.4. CHARGEMENT
#
CHMEZERO=AFFE_CHAR_MECA(    MODELE=MOMEZERO,
                        DDL_IMPO=_F(  GROUP_NO = 'ORIGINE',       DY = 0.,      ),
                        PRES_REP=_F(  GROUP_MA = 'BORD_SUP',    PRES = 1000.,   ),
                        FACE_IMPO=_F(  GROUP_MA = 'BORD_GAU',    DNOR = 0.,      ),
                          )
#
# 3.2.5. RESOLUTION
#
REMEZERO=MECA_STATIQUE( MODELE=MOMEZERO,
                        CHAM_MATER=MAZERO_M,
                        EXCIT=_F(  CHARGE = CHMEZERO,     ),
                        LIST_INST=INSTZERO
                       )
#
# 3.2.6. CALCUL DE L'INDICATEUR D'ERREUR SUR LA MECANIQUE
#
REMEZERO=CALC_ELEM( reuse=REMEZERO,   RESULTAT=REMEZERO,
                    OPTION=( 'SIGM_ELNO', ),
                    NUME_ORDRE=3
                   )

REMEZERO=CALC_ERREUR( reuse=REMEZERO,   RESULTAT=REMEZERO,
                      OPTION=( 'ERME_ELEM', ),
                      NUME_ORDRE=3
                     )
#
# 4. ADAPTATION DU MAILLAGE DE ZERO VERS UN
#
###IMPR_RESU(FORMAT='MED',
###          RESU=_F(RESULTAT=REMEZERO,),);
###IMPR_RESU(FORMAT='MED',
###          RESU=_F(RESULTAT=TZERO_2,),);
MACR_ADAP_MAIL(INFO=1,
               ADAPTATION='RAFFINEMENT',
               MAILLAGE_N = MZERO_2,
               MAILLAGE_NP1 = CO("MUN_2"),
               MAILLAGE_NP1_ANNEXE = CO("MUN_1"),
               RESULTAT_N = REMEZERO,
               NOM_CHAM = 'ERME_ELEM',
               NOM_CMP = 'ERREST' ,
               NUME_ORDRE = 3,
               CRIT_RAFF_PE = 0.10,
               MAJ_CHAM=_F(RESULTAT   = TZERO_2,
                           NOM_CHAM   = 'TEMP',
                           TYPE_CHAM  = 'NOEU_TEMP_R',
                           NUME_ORDRE = 2,
                           CHAM_MAJ   = CO("TEMPUN")),
               QUALITE='OUI'
               )
#
# 5. CALCUL SUR LE MAILLAGE UN
# 5.1. LA THERMIQUE
# 5.1.1. MISE EN PLACE DES MATERIAUX
#
MAUN_T=AFFE_MATERIAU(    MAILLAGE=MUN_1,AFFE=(
       _F(  GROUP_MA = 'MOITIE1',    MATER = MATER1,      ),
       _F(  GROUP_MA = 'MOITIE2',    MATER = MATER2,      ))
                    )
#
# 5.1.2. MODELE
#
MOTHUN=AFFE_MODELE(    MAILLAGE=MUN_1,
  AFFE=_F(  TOUT = 'OUI',   PHENOMENE = 'THERMIQUE',   MODELISATION = 'PLAN_DIAG',  ))
#
# 5.1.3. CHARGEMENT
#
CHTHUN=AFFE_CHAR_THER(    MODELE=MOTHUN,
    TEMP_IMPO=_F(  GROUP_NO = 'ORIGINE',     TEMP = 200.0,    ),
    SOURCE=(_F(  GROUP_MA = 'MOITIE1',    SOUR = 18000.,    ),
            _F(  GROUP_MA = 'MOITIE2',    SOUR = 22000.,    )),
    ECHANGE=_F( GROUP_MA = 'BORD_DRO',  COEF_H = 500.,  TEMP_EXT = 310., )
                         )
#
# 5.1.4. RESOLUTION
#
RETHUN=THER_LINEAIRE( MODELE=MOTHUN,
                      CHAM_MATER=MAUN_T,
                      EXCIT=_F(  CHARGE = CHTHUN,   ),
                      ETAT_INIT=_F(  STATIONNAIRE = 'OUI',   ),
                      INCREMENT=_F(  LIST_INST = INSTUN,   )
                      )
#
# 5.2. LA MECANIQUE

# 5.2.1. MODELE
#
MOMEUN=AFFE_MODELE(    MAILLAGE=MUN_2,
  AFFE=_F(  TOUT = 'OUI',   PHENOMENE = 'MECANIQUE',   MODELISATION = 'D_PLAN',  ))
#
# 5.2.2. PROJECTION DE LA TEMPERATURE DU MAILLAGE EN DEGRE 1 VERS DEGRE 2
#
###IMPR_RESU ( FORMAT='RESULTAT', RESU=_F( RESULTAT=RETHUN,) ) ;
TUN_2=PROJ_CHAMP(METHODE='COLLOCATION',
                    RESULTAT=RETHUN,
                    MODELE_1=MOTHUN,
                    MODELE_2=MOMEUN,
                    TOUT_ORDRE='OUI')

###IMPR_RESU ( FORMAT='RESULTAT', RESU=_F( RESULTAT=TUN_2,) ) ;
#
# 5.2.3. CHARGEMENT
#
CHMEUN=AFFE_CHAR_MECA(    MODELE=MOMEUN,
                        DDL_IMPO=_F(  GROUP_NO = 'ORIGINE',       DY = 0.,      ),
                        PRES_REP=_F(  GROUP_MA = 'BORD_SUP',    PRES = 1000.,   ),
                        FACE_IMPO=_F(  GROUP_MA = 'BORD_GAU',    DNOR = 0.,      ),
                          )
# 5.2.4. MISE EN PLACE DES MATERIAUX
#
MAUN_M=AFFE_MATERIAU(    MAILLAGE=MUN_2,AFFE=(
       _F(  GROUP_MA = 'MOITIE1',    MATER = MATER1,     ),
       _F(  GROUP_MA = 'MOITIE2',    MATER = MATER2,    )),
          AFFE_VARC=_F( TOUT='OUI',
                        EVOL=TUN_2,
                        NOM_VARC='TEMP',
                        NOM_CHAM='TEMP',
                        VALE_REF=20.),)


# 5.2.5. RESOLUTION
#
REMEUN=MECA_STATIQUE( MODELE=MOMEUN,
                        CHAM_MATER=MAUN_M,
                        EXCIT=_F(  CHARGE = CHMEUN,     ),
                        LIST_INST=INSTUN
                       )
#
# 6. TEST DE NON REGRESSION
#
TEST_RESU(RESU=(
       _F(  RESULTAT = RETHUN,   NUME_ORDRE = 2,
            NOM_CHAM = 'TEMP',      GROUP_NO = 'OPPOSE',
            CRITERE = 'RELATIF',    PRECISION = 1.E-6,
            NOM_CMP = 'TEMP',       VALE = 3.02571345E+02,
            REFERENCE = 'NON_REGRESSION', VERSION = '8.03.19' ),
       _F(  RESULTAT = REMEUN,   NUME_ORDRE = 3,
            NOM_CHAM = 'DEPL',      GROUP_NO = 'OPPOSE',
            CRITERE = 'RELATIF',    PRECISION = 1.E-6,
            NOM_CMP = 'DX',         VALE = 1.24150129E-02,
            REFERENCE = 'NON_REGRESSION', VERSION = '8.03.19' ),
       _F(  RESULTAT = REMEUN,   NUME_ORDRE = 3,
            NOM_CHAM = 'DEPL',      GROUP_NO = 'OPPOSE',
            CRITERE = 'RELATIF',    PRECISION = 1.E-6,
            NOM_CMP = 'DY',         VALE = -2.54077755E-02,
            REFERENCE = 'NON_REGRESSION', VERSION = '8.03.19' ))
          )
#
# 7. ADAPTATION DU MAILLAGE DE UN VERS DEUX
#    REMARQUE : PAR RAPPORT A L'ADAPTATION PRECEDENTE, ON TESTE DES VARIANTES
#               DE LA COMMANDE :
#               . RAFFINEMENT VIA UNE ZONE
#               . SELECTION DU CHAMP A METTRE A JOUR PAR UN INSTANT AU LIEU
#                 D'UN NUMERO D'ORDRE
#               . DEUX CHAMPS A METTRE A JOUR
#               . AUTRES OPTIONS D'ANALYSE DU MAILLAGE
#
###IMPR_RESU(FORMAT='MED',
###          RESU=_F(RESULTAT=TUN_2,),);
MACR_ADAP_MAIL(INFO=1,
               ADAPTATION='RAFFINEMENT_ZONE',
               MAILLAGE_N = MUN_2,
               MAILLAGE_NP1 = CO("MDEUX_2"),
               MAILLAGE_NP1_ANNEXE = CO("MDEUX_1"),
               ZONE=(_F(TYPE = 'RECTANGLE',
                        X_MINI = -0.01,
                        X_MAXI =  0.26,
                        Y_MINI =  0.24,
                        Y_MAXI =  0.51,),
                     _F(TYPE = 'DISQUE',
                        X_CENTRE = 0.55,
                        Y_CENTRE = 0.75,
                        RAYON   =  0.30,),),
               MAJ_CHAM=(_F(
                       RESULTAT   = TUN_2,
                       NOM_CHAM   = 'TEMP',
                       TYPE_CHAM  = 'NOEU_TEMP_R',
                       INST = 8.0,
                       CHAM_MAJ   = CO("TEMP_8")),
                        _F(
                       RESULTAT   = TUN_2,
                       NOM_CHAM   = 'TEMP',
                       TYPE_CHAM  = 'NOEU_TEMP_R',
                       INST = 6.0,
                       CHAM_MAJ   = CO("TEMP_6")),),
               QUALITE='OUI',
               CONNEXITE='OUI',
               TAILLE='OUI')
#
# 8. CALCUL SUR LE MAILLAGE DEUX
# 8.1. LA THERMIQUE
# 8.1.1. MISE EN PLACE DES MATERIAUX
#
MADEUX_T=AFFE_MATERIAU(    MAILLAGE=MDEUX_1,AFFE=(
       _F(  GROUP_MA = 'MOITIE1',    MATER = MATER1,     ),
       _F(  GROUP_MA = 'MOITIE2',    MATER = MATER2,    ))
                    )
#
# 8.1.2. MODELE
#
MOTHDEUX=AFFE_MODELE(    MAILLAGE=MDEUX_1,
  AFFE=_F(  TOUT = 'OUI',   PHENOMENE = 'THERMIQUE',   MODELISATION = 'PLAN_DIAG',  ))
#
# 8.1.3. CHARGEMENT
#
CHTHDEUX=AFFE_CHAR_THER(    MODELE=MOTHDEUX,
    TEMP_IMPO=_F(  GROUP_NO = 'ORIGINE',     TEMP = 200.0,    ),
    SOURCE=(_F(  GROUP_MA = 'MOITIE1',    SOUR = 18000.,    ),
            _F(  GROUP_MA = 'MOITIE2',    SOUR = 22000.,    )),
    ECHANGE=_F( GROUP_MA = 'BORD_DRO',  COEF_H = 500.,  TEMP_EXT = 310., )
                         )
#
# 8.1.4. RESOLUTION
#
RETHDEUX=THER_LINEAIRE( MODELE=MOTHDEUX,
                      CHAM_MATER=MADEUX_T,
                      EXCIT=_F(  CHARGE = CHTHDEUX,   ),
                      ETAT_INIT=_F(  STATIONNAIRE = 'OUI',   ),
                      INCREMENT=_F(  LIST_INST = INSTDEUX,   )
                      )
#
# 8.2. LA MECANIQUE

# 8.2.1. MODELE
#
MOMEDEUX=AFFE_MODELE(    MAILLAGE=MDEUX_2,
  AFFE=_F(  TOUT = 'OUI',   PHENOMENE = 'MECANIQUE',   MODELISATION = 'D_PLAN',  ))
#
# 8.2.2. PROJECTION DE LA TEMPERATURE DU MAILLAGE EN DEGRE 1 VERS DEGRE 2
#
###IMPR_RESU ( FORMAT='RESULTAT', RESU=_F( RESULTAT=RETHDEUX,) ) ;
TDEUX_2=PROJ_CHAMP(METHODE='COLLOCATION',
                    RESULTAT=RETHDEUX,
                    MODELE_1=MOTHDEUX,
                    MODELE_2=MOMEDEUX,
                    TOUT_ORDRE='OUI')
###IMPR_RESU ( FORMAT='RESULTAT', RESU=_F( RESULTAT=TDEUX_2,) ) ;
#
# 8.2.3. MISE EN PLACE DES MATERIAUX
#
MADEUX_M=AFFE_MATERIAU(    MAILLAGE=MDEUX_2,AFFE=(
       _F(  GROUP_MA = 'MOITIE1',    MATER = MATER1,    ),
       _F(  GROUP_MA = 'MOITIE2',    MATER = MATER2,   )),
          AFFE_VARC=_F( TOUT='OUI',
                        EVOL=TDEUX_2,
                        NOM_VARC='TEMP',
                        NOM_CHAM='TEMP',
                        VALE_REF=20.),)

# 8.2.4. CHARGEMENT
#
CHMEDEUX=AFFE_CHAR_MECA(    MODELE=MOMEDEUX,
                        DDL_IMPO=_F(  GROUP_NO = 'ORIGINE',       DY = 0.,      ),
                        PRES_REP=_F(  GROUP_MA = 'BORD_SUP',    PRES = 1000.,   ),
                        FACE_IMPO=_F(  GROUP_MA = 'BORD_GAU',    DNOR = 0.,      ),
                          )
#
# 8.2.5. RESOLUTION
#
REMEDEUX=MECA_STATIQUE( MODELE=MOMEDEUX,
                        CHAM_MATER=MADEUX_M,
                        EXCIT=_F(  CHARGE = CHMEDEUX,     ),
                        LIST_INST=INSTDEUX
                       )

#
# 9. TEST DE NON REGRESSION
#
TEST_RESU(RESU=(
       _F(  RESULTAT = RETHDEUX,   NUME_ORDRE = 2,
            NOM_CHAM = 'TEMP',      GROUP_NO = 'OPPOSE',
            CRITERE = 'RELATIF',    PRECISION = 1.E-6,
            NOM_CMP = 'TEMP',       VALE = 3.03305718E+02,
            REFERENCE = 'NON_REGRESSION', VERSION = '8.03.19'  ),
       _F(  RESULTAT = REMEDEUX,   NUME_ORDRE = 3,
            NOM_CHAM = 'DEPL',      GROUP_NO = 'OPPOSE',
            CRITERE = 'RELATIF',    PRECISION = 1.E-6,
            NOM_CMP = 'DX',         VALE = 1.23762443E-02,
            REFERENCE = 'NON_REGRESSION', VERSION = '8.03.19' ),
       _F(  RESULTAT = REMEDEUX,   NUME_ORDRE = 3,
            NOM_CHAM = 'DEPL',      GROUP_NO = 'OPPOSE',
            CRITERE = 'RELATIF',    PRECISION = 1.E-6,
            NOM_CMP = 'DY',         VALE = -2.56470180E-02,
            REFERENCE = 'NON_REGRESSION', VERSION = '8.03.19' ))
          )
#
# 10. ADAPTATION DU MAILLAGE DE DEUX VERS TROIS
#    REMARQUE : PAR RAPPORT A L'ADAPTATION PRECEDENTE, ON TESTE DES VARIANTES
#               DE LA COMMANDE :
#               . RAFFINEMENT ET DERAFFINEMENT
#               . SELECTION DES ZONES EN TRIANT LES PLUS FORTS SAUTS DE
#                 CONTRAINTES ENTRE MAILLES
#
###IMPR_RESU(FORMAT='MED',
###          RESU=_F(RESULTAT=REMEDEUX,),);
MACR_ADAP_MAIL(INFO=1,
               ADAPTATION='RAFF_DERA',
               MAILLAGE_N = MDEUX_2,
               MAILLAGE_NP1 = CO("MTROI_2"),
               MAILLAGE_NP1_ANNEXE = CO("MTROI_1"),
               RESULTAT_N = REMEDEUX,
               NOM_CHAM = 'SIEF_ELGA',
               NOM_CMP = 'SIZZ' ,
               NUME_ORDRE = 3,
               USAGE_CHAMP = 'SAUT',
               CRIT_RAFF_PE = 0.02,
               CRIT_DERA_PE = 0.60,
               QUALITE='OUI'
               )
#
# 11. CALCUL SUR LE MAILLAGE TROI
# 11.1. LA THERMIQUE
# 11.1.1. MISE EN PLACE DES MATERIAUX
#
MATROI_T=AFFE_MATERIAU(    MAILLAGE=MTROI_1,AFFE=(
       _F(  GROUP_MA = 'MOITIE1',    MATER = MATER1,     ),
       _F(  GROUP_MA = 'MOITIE2',    MATER = MATER2,    ))
                    )
#
# 11.1.2. MODELE
#
MOTHTROI=AFFE_MODELE(    MAILLAGE=MTROI_1,
  AFFE=_F(  TOUT = 'OUI',   PHENOMENE = 'THERMIQUE',   MODELISATION = 'PLAN_DIAG',  ))
#
# 11.1.3. CHARGEMENT
#
CHTHTROI=AFFE_CHAR_THER(    MODELE=MOTHTROI,
    TEMP_IMPO=_F(  GROUP_NO = 'ORIGINE',     TEMP = 200.0,    ),
    SOURCE=(_F(  GROUP_MA = 'MOITIE1',    SOUR = 18000.,    ),
            _F(  GROUP_MA = 'MOITIE2',    SOUR = 22000.,    )),
    ECHANGE=_F( GROUP_MA = 'BORD_DRO',  COEF_H = 500.,  TEMP_EXT = 310., )
                         )
#
# 11.1.4. RESOLUTION
#
RETHTROI=THER_LINEAIRE( MODELE=MOTHTROI,
                      CHAM_MATER=MATROI_T,
                      EXCIT=_F(  CHARGE = CHTHTROI,   ),
                      ETAT_INIT=_F(  STATIONNAIRE = 'OUI',   ),
                      INCREMENT=_F(  LIST_INST = INSTTROI,   )
                      )
#
# 12. TEST DE NON REGRESSION
#
TEST_RESU(RESU=(
       _F(  RESULTAT = RETHTROI,   NUME_ORDRE = 2,
            NOM_CHAM = 'TEMP',      GROUP_NO = 'OPPOSE',
            CRITERE = 'RELATIF',    PRECISION = 1.E-6,
            NOM_CMP = 'TEMP',       VALE = 3.030801408E+02,
            REFERENCE = 'NON_REGRESSION', VERSION = '9.02.15'  ))
          )
#
FIN( )
