# ======================================================================
# COPYRIGHT (C) 1991 - 2016  EDF R&D                  WWW.CODE-ASTER.ORG
# THIS PROGRAM IS FREE SOFTWARE; YOU CAN REDISTRIBUTE IT AND/OR MODIFY
# IT UNDER THE TERMS OF THE GNU GENERAL PUBLIC LICENSE AS PUBLISHED BY
# THE FREE SOFTWARE FOUNDATION; EITHER VERSION 2 OF THE LICENSE, OR
# (AT YOUR OPTION) ANY LATER VERSION.
#
# THIS PROGRAM IS DISTRIBUTED IN THE HOPE THAT IT WILL BE USEFUL, BUT
# WITHOUT ANY WARRANTY; WITHOUT EVEN THE IMPLIED WARRANTY OF
# MERCHANTABILITY OR FITNESS FOR A PARTICULAR PURPOSE. SEE THE GNU
# GENERAL PUBLIC LICENSE FOR MORE DETAILS.
#
# YOU SHOULD HAVE RECEIVED A COPY OF THE GNU GENERAL PUBLIC LICENSE
# ALONG WITH THIS PROGRAM; IF NOT, WRITE TO EDF R&D CODE_ASTER,
#    1 AVENUE DU GENERAL DE GAULLE, 92141 CLAMART CEDEX, FRANCE.
# ======================================================================
#----------------------------------------------------------------------
DEBUT(CODE=_F(NIV_PUB_WEB='INTERNET'),DEBUG=_F(SDVERI='OUI'), PAR_LOT='NON',
      # SUPERVIS_1 : a cause de PAR_LOT='NON' necessaire pour recuperer la valeur de reference.
      IGNORE_ALARM=('SUPERVIS_1'))

MATER=DEFI_MATERIAU(ELAS=_F(E=200000.0,
                            NU=0.0,),);

PRE_GIBI();

MA_2D=LIRE_MAILLAGE();

CHMAT_2D=AFFE_MATERIAU(MAILLAGE=MA_2D,
                       AFFE=_F(TOUT='OUI',
                               MATER=MATER,),);

#  MODELE  2D :
#  ------------

MOD1=AFFE_MODELE(MAILLAGE=MA_2D,
                 AFFE=_F(TOUT='OUI',
                         PHENOMENE='MECANIQUE',
                         MODELISATION='D_PLAN',),);

CH1=AFFE_CHAR_MECA(MODELE=MOD1,
                   DDL_IMPO=_F(GROUP_NO='A',
                               DX=0,
                               DY=0,),
                   FACE_IMPO=_F(GROUP_MA='BORD3B',
                                DX=2.0,
                                DY=3.0,),
                   LIAISON_SOLIDE=_F(GROUP_MA='CARRE2',),
                   INFO=1,);
# CALCUL DE REFERENCE (MUMPS + CHARGEMENT DUALISE)

REREF1=MECA_STATIQUE( MODELE=MOD1, CHAM_MATER=CHMAT_2D, SOLVEUR=_F(METHODE='MUMPS',),
                      EXCIT=(_F(CHARGE = CH1),   ))

TN1=POST_RELEVE_T(  ACTION=_F(  INTITULE = 'XX1', GROUP_NO = 'B', OPERATION = 'EXTRACTION',
                                RESULTAT = REREF1, NUME_ORDRE=1, NOM_CHAM='DEPL', TOUT_CMP = 'OUI' ))

DXREF=TN1['DX',1]
DYREF=TN1['DY',1]

# CALCUL AVEC ELIMINATION DES LAGRANGES 

MES1=MECA_STATIQUE(MODELE=MOD1,
                   CHAM_MATER=CHMAT_2D,
                   EXCIT=_F(CHARGE=CH1,),
                   SOLVEUR=_F(ELIM_LAGR='OUI',),);

#IMPR_RESU(RESU=_F(RESULTAT=MES1,
#                  NOM_CHAM='DEPL',
#                  GROUP_NO=('B',),),);

# TESTS 
                  
TEST_RESU(RESU=_F(NUME_ORDRE=1, GROUP_NO='B', RESULTAT=MES1,  NOM_CHAM='DEPL', NOM_CMP='DX',
                                  REFERENCE='AUTRE_ASTER', VALE_REFE=DXREF, VALE_CALC= -8.53964377759386E-01,)) 

TEST_RESU(RESU=_F(NUME_ORDRE=1, GROUP_NO='B', RESULTAT=MES1,  NOM_CHAM='DEPL', NOM_CMP='DY',
                                  REFERENCE='AUTRE_ASTER', VALE_REFE=DYREF , VALE_CALC = 2.16974908826082E+00,))

#
#---------------------------------------------------------------------

FIN();

#
#CHECKSUM:7048e3b585852ba7264d1f034c3a9212  -:FIN CHECKSUM
