# TITRE CALCUL D UN ASSEMBLAGE GOUJON-BRIDE AVEC UN HAUT DE BRIDE
# ======================================================================
# COPYRIGHT (C) 1991 - 2015  EDF R&D                  WWW.CODE-ASTER.ORG
# THIS PROGRAM IS FREE SOFTWARE; YOU CAN REDISTRIBUTE IT AND/OR MODIFY
# IT UNDER THE TERMS OF THE GNU GENERAL PUBLIC LICENSE AS PUBLISHED BY
# THE FREE SOFTWARE FOUNDATION; EITHER VERSION 2 OF THE LICENSE, OR
# (AT YOUR OPTION) ANY LATER VERSION.
#
# THIS PROGRAM IS DISTRIBUTED IN THE HOPE THAT IT WILL BE USEFUL, BUT
# WITHOUT ANY WARRANTY; WITHOUT EVEN THE IMPLIED WARRANTY OF
# MERCHANTABILITY OR FITNESS FOR A PARTICULAR PURPOSE. SEE THE GNU
# GENERAL PUBLIC LICENSE FOR MORE DETAILS.
#
# YOU SHOULD HAVE RECEIVED A COPY OF THE GNU GENERAL PUBLIC LICENSE
# ALONG WITH THIS PROGRAM; IF NOT, WRITE TO EDF R&D CODE_ASTER,
#    1 AVENUE DU GENERAL DE GAULLE, 92141 CLAMART CEDEX, FRANCE.
# ======================================================================

import aster_core
import os

########################################################################
# Generation du nom du fichier pour l unite logique unite
def name_file(unite):
    cur_dir = os.getcwd()
    nomFichier = cur_dir+'/fort.'+str(unite)
    return nomFichier
########################################################################

########################################################################
# creation des fichiers de commande GIBI dans les unites UNITD et UNITP
def macr_gouj2e_mail(TYPE,VARIANTE,NB_FILET,H_CORP_BRID,R_EXT_BRID,
                     H_HAUT_BRID,H_BAS_BRID,FILET_ABST,
                     UNITD=70,UNITP=71) :
    texte =         '***************************************************************\n'
    texte = texte + '*                                                              \n'
    texte = texte + '* CREATION DU MAILLAGE DE GOUJON, FILETS ET BRIDE 2D AXIS      \n'
    texte = texte + '* -------------------------------------------------------------\n'
    texte = texte + '*************************************************              \n'
    texte = texte + '*                VERSION 1.0                    *              \n'
    texte = texte + '*            VERSION DU 15/07/1999              *              \n'
    texte = texte + '*************************************************              \n'
    texte = texte + '*                                                              \n'
    texte = texte + '***************************************************************\n'
    texte = texte + '*****              PROGRAMME  PRINCIPAL                 *******\n'
    texte = texte + '***************************************************************\n'
    texte = texte + '*                                                              \n'
    texte = texte + 'OPTION DIME 2 ELEM QUA4 NIVE 10 ECHO 0;                        \n'
    texte = texte + '* DEBUT PARAMETRES UTILISATEUR                                 \n'
    texte = texte + '*                                                              \n'
    texte = texte + '* PARAMETRES GENERAUX                                          \n'
    texte = texte + '*                                                              \n'
    texte = texte + 'RI_BRI       = '+str(eval('RIB'+TYPE+VARIANTE)) +';'+'         \n'
    texte = texte + 'RE_GOUJ      = '+str(eval('REG'+TYPE+VARIANTE)) +';'+'         \n'
    texte = texte + 'PAS          = '+str(eval('HF' +TYPE+VARIANTE)) +';'+'         \n'
    texte = texte + 'RE_BRI       = '+str(R_EXT_BRID )+';                           \n'
    texte = texte + 'HTE_BRI      = '+str(H_CORP_BRID)+';                           \n'
    texte = texte + 'NFIL         = '+str(NB_FILET   )+';                           \n'
    texte = texte + 'H_MINFI      = '+str(H_BAS_BRID )+';                           \n'
    texte = texte + 'H_HTBRI      = '+str(H_HAUT_BRID)+';                           \n'
    texte = texte + '* FIN PARAMETRES UTILISATEUR                                   \n'
    textp = ''
    if FILET_ABST!=None :
       for num in FILET_ABST :
           textp = textp + 'FILETS = DIFF FILETS FIL00'+str(num)+';                 \n'
    ref_datg = aster_core.get_option("repdex")
    loc_datg = os.path.join(os.getcwdu(), 'datg')
    os.symlink(ref_datg, loc_datg)

    # Decoupe de la chaine GIBI
    length = 50

    seq = os.path.join("..", "datg", "gouj2.datg")
    assert len(seq) <= 72, "Gibi does not support paths longer than 72 characters\npath:%s" % seq
    tt = [seq[i:i+length] for i in range(0, len(seq), length)]
    textp = textp + "PDATG = CHAINE '" + "'\n'".join(tt) + "'" + ";\n"
    textp = textp + "OPTI DONN PDATG;\n"

    seq = os.path.join(loc_datg, "gouj1.datg")
    tt = [seq[i:i+length] for i in range(0, len(seq), length)]
    texte = texte + "PDATG = CHAINE '" + "'\n'".join(tt) + "'" + ";\n"
    texte = texte + "OPTI DONN PDATG;\n"

    # Nom du fichier de commandes pour GIBI
    nomFichierDATG = name_file(UNITD)
    nomFichierDATP = name_file(UNITP)

    # Ouverture du fichier d entree de commandes gibi
    fdgib=open(nomFichierDATG,'w')
    fdgip=open(nomFichierDATP,'w')
    fdgib.write(texte)
    fdgip.write(textp)
    fdgib.close()
    fdgip.close()

    return
########################################################################

########################################################################
# macro commande de post-traitement (ex POST_GOUJ2E)
# calcul des reactions cumulees suivant les filets

def POST_GOUJ_ops(self,TABLE):
  ier=0
  self.set_icmd(1)
  ### On importe les definitions des commandes a utiliser dans la macro
  CREA_TABLE  =self.get_cmd('CREA_TABLE')

  aa1=TABLE.EXTR_TABLE()
  aaa=aa1.values()

  v_DY=aaa['DY']
  v_NU=aaa['NUME_ORDRE']
  NBVAL=len(v_DY)
  nbv=0
  for num in v_NU :
    if num==v_NU[0] : nbv=nbv+1
  if nbv>0 : ninch=NBVAL/nbv
  else : print "error"

  v_F1=[v_DY[i*nbv:(i+1)*nbv] for i in range(ninch)]
  v_FO=[]
  v_CU=[]
  def add(x,y): return x+y
  for liste in v_F1:
    liste.reverse()
    v_FO.append(liste)
    ftot=reduce(add,liste)
    v_CU.append([reduce(add,liste[:i+1])*100./ftot for i in range(len(liste))])

  v_NF=[]
  for i in range(ninch)    : v_NF=v_NF+range(1,nbv+1)
  v_RE=[]
  for liste in v_FO : v_RE=v_RE+liste
  v_RC=[]
  for liste in v_CU : v_RC=v_RC+liste

  self.DeclareOut('tab3',self.sd)
  tab3=CREA_TABLE(LISTE=(_F(PARA    = 'NUME_ORDRE' ,
                              LISTE_I = v_NU ),
                           _F(PARA    = 'NUME_FILET' ,
                              LISTE_I = v_NF ),
                           _F(PARA    = 'REACTION' ,
                              LISTE_R = v_RE ),
                           _F(PARA    = 'REACTION_CUMU' ,
                              LISTE_R = v_RC ),
                 ))
  return 0

POST_GOUJ=MACRO(nom="POST_GOUJ",op=POST_GOUJ_ops,sd_prod=table_sdaster,reentrant='n',fr="",
                TABLE=SIMP(statut='o',typ=table_sdaster),)
########################################################################

DEBUT(CODE=_F(NIV_PUB_WEB='INTRANET',VISU_EFICAS='NON',),PAR_LOT='NON',
      DEBUG=_F(SDVERI='OUI'))
#
# CAS TEST : CALCUL D UN ASSEMBLAGE GOUJON-BRIDE
# LA BRIDE COMPORTE UN HAUT DE BRIDE DE 200 MM
# LA BRIDE N A PAS DE BAS DE BRIDE

INCLUDE(DONNEE='zzzz120.datg')
VARIANTE     = 'A'
H_HAUT_BRID  = 200.0


macr_gouj2e_mail(TYPE,VARIANTE,NB_FILET,H_CORP_BRID,R_EXT_BRID,
                 H_HAUT_BRID,H_BAS_BRID,FILET_ABST,)

loc_outils = aster_core.get_option("repout")

EXEC_LOGICIEL(LOGICIEL=os.path.join(loc_outils, 'gibi'),
              ARGUMENT=('fort.70', 'fort.19'), );

PRE_GIBI()

MAIL=LIRE_MAILLAGE()

MAIL=DEFI_GROUP(reuse = MAIL,
                MAILLAGE=MAIL,
                CREA_GROUP_NO=(_F(NOM='NDFILETS',
                                  GROUP_MA='CORPSGOU',
                                  CRIT_NOEUD='TOUS')), )

IMPR_RESU(FORMAT='CASTEM',UNITE=53,RESU=_F(MAILLAGE=MAIL,),)

MAIL=DEFI_GROUP(reuse =MAIL,
                MAILLAGE=MAIL,
                CREA_GROUP_NO=(_F(GROUP_MA='GOUJON',
                                  NOM='GOUJ_NO',
                                  CRIT_NOEUD='TOUS',),
                               _F(GROUP_MA='FILETS',
                                  NOM='FILET_NO',
                                  CRIT_NOEUD='TOUS',),
                               _F(GROUP_MA='BRIDE',
                                  NOM='BRIDE_NO',
                                  CRIT_NOEUD='TOUS',),),);

modele=AFFE_MODELE(MAILLAGE=MAIL,
                   AFFE=(_F(GROUP_MA='GOUJON',
                            PHENOMENE='MECANIQUE',
                            MODELISATION='POU_D_E',),
                         _F(GROUP_MA='FILETS',
                            PHENOMENE='MECANIQUE',
                            MODELISATION='2D_DIS_T',),
                         _F(GROUP_MA='BRIDE',
                            PHENOMENE='MECANIQUE',
                            MODELISATION='AXIS',),),);

carael=AFFE_CARA_ELEM(MODELE=modele,
                      POUTRE=_F(GROUP_MA='GOUJON',
                                SECTION='CERCLE',
                                CARA='R',
                                VALE=73.6478136849,),
                      DISCRET_2D=_F(GROUP_MA='FILETS',
                                    CARA='K_T_D_L',
                                    VALE=(10000000.0,10000000.0,),),);

MF_1=DEFI_MATERIAU(TRACTION=_F(SIGM=PFM155A,),);

MF_2=DEFI_MATERIAU(TRACTION=_F(SIGM=DFM155A,),);

MF_C=DEFI_MATERIAU(TRACTION=_F(SIGM=FCM155A,),);

chmat=AFFE_MATERIAU(MAILLAGE=MAIL,
                    AFFE=(_F(GROUP_MA='GOUJON',
                             MATER=MGM155A,),
                          _F(GROUP_MA='FILETS',
                             MATER=MF_C,),
                          _F(GROUP_MA='BRIDE',
                             MATER=MBM155A,),
                          _F(GROUP_MA='FIL001',
                             MATER=MF_1,),
                          _F(GROUP_MA='FIL002',
                             MATER=MF_2,),),);

charme=AFFE_CHAR_MECA(MODELE=modele,
                      DDL_IMPO=_F(GROUP_NO=('GOUJ_NO','FILET_NO','BRIDE_NO',),
                                  DX=0.0,),
                      FACE_IMPO=(_F(GROUP_MA=('DBRIDE','BBRIDE',),
                                    DY=0.0,),
                                 _F(GROUP_MA='GOUJON',
                                    DZ=0.0,
                                    DRY=0.0,),),
                      FORCE_NODALE=_F(GROUP_NO='PHGOUJ',
                                      FY=1.0,),);

fonc=DEFI_FONCTION(NOM_PARA='INST',
                   NOM_RESU='TOUTRESU',
                   VALE=(0.0,0.0,5.0,5000000.0,),);

list=DEFI_LIST_REEL(DEBUT=0.0,
                    INTERVALLE=(_F(JUSQU_A=1.0,
                                   NOMBRE=1,),
                                _F(JUSQU_A=2.0,
                                   NOMBRE=1,),
                                _F(JUSQU_A=3.0,
                                   NOMBRE=1,),
                                _F(JUSQU_A=4.0,
                                   NOMBRE=1,),
                                _F(JUSQU_A=5.0,
                                   NOMBRE=1,),),);

CALC=STAT_NON_LINE(MODELE=modele,
                   CHAM_MATER=chmat,
                   CARA_ELEM=carael,
                   EXCIT=_F(CHARGE=charme,
                            FONC_MULT=fonc,
                            TYPE_CHARGE='FIXE_CSTE',),
                   COMPORTEMENT=(_F(RELATION='ELAS',
                                 DEFORMATION='PETIT',
                                 GROUP_MA='GOUJON',),
                              _F(RELATION='ELAS',
                                 DEFORMATION='PETIT',
                                 GROUP_MA='BRIDE',),
                              _F(RELATION='DIS_GOUJ2E_PLAS',
                                 DEFORMATION='PETIT',
                                 GROUP_MA='FILETS',),),
                   INCREMENT=_F(LIST_INST=list,),
                   NEWTON=_F(REAC_ITER=3,),
                   CONVERGENCE=_F(ITER_GLOB_MAXI=20,),);

CALC=CALC_CHAMP(reuse =CALC,
             RESULTAT=CALC,
             PRECISION=0.001,
             CRITERE='RELATIF',
             FORCE='FORC_NODA',
             GROUP_MA='FILETS',);

tab1=POST_RELEVE_T(ACTION=_F(INTITULE='RESU_T1',
                             GROUP_NO='NDFILETS',
                             FORMAT_C='MODULE',
                             RESULTAT=CALC,
                             NOM_CHAM='FORC_NODA',
                             TOUT_ORDRE='OUI',
                             PRECISION=1e-06,
                             CRITERE='RELATIF',
                             NOM_CMP='DY',
                             REPERE='GLOBAL',
                             MOYE_NOEUD='OUI',
                             OPERATION='EXTRACTION',),);

tab1=CALC_TABLE(reuse =tab1,
               TABLE=tab1,
               ACTION=(_F(
                          OPERATION = 'FILTRE',
                          NOM_PARA  = 'NUME_ORDRE',
                          CRIT_COMP = 'GT',
                          VALE    = 0,
                         ),),);

tab2=POST_GOUJ(TABLE=tab1,);

IMPR_TABLE(TABLE=tab2,
           UNITE=8,
           FORMAT='AGRAF',
           FILTRE=_F(NOM_PARA='NUME_ORDRE',
                     VALE_I=1,),
           NOM_PARA=('NUME_ORDRE','NUME_FILET','REACTION','REACTION_CUMU',),);

IMPR_TABLE(TABLE=tab2,
           UNITE=8,
           FORMAT='AGRAF',
           FILTRE=_F(NOM_PARA='NUME_ORDRE',
                     VALE_I=2,),
           NOM_PARA=('NUME_ORDRE','NUME_FILET','REACTION','REACTION_CUMU',),);

IMPR_TABLE(TABLE=tab2,
           UNITE=8,
           FORMAT='AGRAF',
           FILTRE=_F(NOM_PARA='NUME_ORDRE',
                     VALE_I=3,),
           NOM_PARA=('NUME_ORDRE','NUME_FILET','REACTION','REACTION_CUMU',),);

IMPR_TABLE(TABLE=tab2,
           UNITE=8,
           FORMAT='AGRAF',
           FILTRE=_F(NOM_PARA='NUME_ORDRE',
                     VALE_I=4,),
           NOM_PARA=('NUME_ORDRE','NUME_FILET','REACTION','REACTION_CUMU',),);

IMPR_TABLE(TABLE=tab2,
           UNITE=8,
           FORMAT='AGRAF',
           FILTRE=_F(NOM_PARA='NUME_ORDRE',
                     VALE_I=5,),
           NOM_PARA=('NUME_ORDRE','NUME_FILET','REACTION','REACTION_CUMU',),);

# POST-TRAITMENT

TFORC=POST_RELEVE_T(ACTION=_F(INTITULE='C_TEST1',
                              GROUP_NO='NDFILETS',
                              RESULTAT=CALC,
                              NOM_CHAM='FORC_NODA',
                              TOUT_ORDRE='OUI',
                              NOM_CMP='DY',
                              OPERATION='EXTRACTION',),);

TFORC=CALC_TABLE(reuse =TFORC,
               TABLE=TFORC,
               ACTION=(_F(
                          OPERATION = 'FILTRE',
                          NOM_PARA  = 'NUME_ORDRE',
                          CRIT_COMP = 'GT',
                          VALE    = 0,
                         ),),);

NTFORC=POST_GOUJ(TABLE=TFORC,);

#---------------------------------------------
# TEST DES VALEURS
#---------------------------------------------
# TEST DES VALEURS PAR RAPPORT AUX RESULTATS ANTHEMIX
# PAS DE CHARGE 1

TEST_TABLE(PRECISION=0.017000000000000001,
           VALE_CALC=93598.8485486,
           VALE_REFE=9.2078300000000003E4,
           REFERENCE='NON_DEFINI',
           NOM_PARA='REACTION',
           TABLE=NTFORC,
           FILTRE=(_F(NOM_PARA='NUME_ORDRE',
                      VALE_I=1,),
                   _F(NOM_PARA='NUME_FILET',
                      VALE_I=1,),
                   ),
           )

TEST_TABLE(PRECISION=3.0000000000000001E-3,
           VALE_CALC=82043.985956,
           VALE_REFE=8.1809600000000006E4,
           REFERENCE='NON_DEFINI',
           NOM_PARA='REACTION',
           TABLE=NTFORC,
           FILTRE=(_F(NOM_PARA='NUME_ORDRE',
                      VALE_I=1,),
                   _F(NOM_PARA='NUME_FILET',
                      VALE_I=2,),
                   ),
           )

TEST_TABLE(PRECISION=0.029999999999999999,
           VALE_CALC=61374.3690449,
           VALE_REFE=6.3268300000000003E4,
           REFERENCE='NON_DEFINI',
           NOM_PARA='REACTION',
           TABLE=NTFORC,
           FILTRE=(_F(NOM_PARA='NUME_ORDRE',
                      VALE_I=1,),
                   _F(NOM_PARA='NUME_FILET',
                      VALE_I=5,),
                   ),
           )

TEST_TABLE(PRECISION=0.054800000000000001,
           VALE_CALC=54491.2223692,
           VALE_REFE=5.7644400000000001E4,
           REFERENCE='NON_DEFINI',
           NOM_PARA='REACTION',
           TABLE=NTFORC,
           FILTRE=(_F(NOM_PARA='NUME_ORDRE',
                      VALE_I=1,),
                   _F(NOM_PARA='NUME_FILET',
                      VALE_I=6,),
                   ),
           )

TEST_TABLE(PRECISION=0.069000000000000006,
           VALE_CALC=48909.2457646,
           VALE_REFE=5.2532199999999997E4,
           REFERENCE='NON_DEFINI',
           NOM_PARA='REACTION',
           TABLE=NTFORC,
           FILTRE=(_F(NOM_PARA='NUME_ORDRE',
                      VALE_I=1,),
                   _F(NOM_PARA='NUME_FILET',
                      VALE_I=7,),
                   ),
           )

TEST_TABLE(PRECISION=0.21099999999999999,
           VALE_CALC=10317.8108132,
           VALE_REFE=8526.4899999999998,
           REFERENCE='NON_DEFINI',
           NOM_PARA='REACTION',
           TABLE=NTFORC,
           FILTRE=(_F(NOM_PARA='NUME_ORDRE',
                      VALE_I=1,),
                   _F(NOM_PARA='NUME_FILET',
                      VALE_I=28,),
                   ),
           )

TEST_TABLE(PRECISION=0.11550000000000001,
           VALE_CALC=8448.4589039,
           VALE_REFE=9546.2700000000004,
           REFERENCE='NON_DEFINI',
           NOM_PARA='REACTION',
           TABLE=NTFORC,
           FILTRE=(_F(NOM_PARA='NUME_ORDRE',
                      VALE_I=1,),
                   _F(NOM_PARA='NUME_FILET',
                      VALE_I=55,),
                   ),
           )

TEST_TABLE(PRECISION=0.076749999999999999,
           VALE_CALC=9567.14065273,
           VALE_REFE=1.0362200000000001E4,
           REFERENCE='NON_DEFINI',
           NOM_PARA='REACTION',
           TABLE=NTFORC,
           FILTRE=(_F(NOM_PARA='NUME_ORDRE',
                      VALE_I=1,),
                   _F(NOM_PARA='NUME_FILET',
                      VALE_I=56,),
                   ),
           )

# PAS DE CHARGE 5

TEST_TABLE(PRECISION=0.014999999999999999,
           VALE_CALC=375965.577566,
           VALE_REFE=3.70668E5,
           REFERENCE='NON_DEFINI',
           NOM_PARA='REACTION',
           TABLE=NTFORC,
           FILTRE=(_F(NOM_PARA='NUME_ORDRE',
                      VALE_I=5,),
                   _F(NOM_PARA='NUME_FILET',
                      VALE_I=1,),
                   ),
           )

TEST_TABLE(PRECISION=0.012999999999999999,
           VALE_CALC=363798.630192,
           VALE_REFE=3.59170E5,
           REFERENCE='NON_DEFINI',
           NOM_PARA='REACTION',
           TABLE=NTFORC,
           FILTRE=(_F(NOM_PARA='NUME_ORDRE',
                      VALE_I=5,),
                   _F(NOM_PARA='NUME_FILET',
                      VALE_I=2,),
                   ),
           )

TEST_TABLE(PRECISION=0.016,
           VALE_CALC=309596.464535,
           VALE_REFE=3.14594E5,
           REFERENCE='NON_DEFINI',
           NOM_PARA='REACTION',
           TABLE=NTFORC,
           FILTRE=(_F(NOM_PARA='NUME_ORDRE',
                      VALE_I=5,),
                   _F(NOM_PARA='NUME_FILET',
                      VALE_I=5,),
                   ),
           )

TEST_TABLE(PRECISION=0.035999999999999997,
           VALE_CALC=284261.434285,
           VALE_REFE=2.94781E5,
           REFERENCE='NON_DEFINI',
           NOM_PARA='REACTION',
           TABLE=NTFORC,
           FILTRE=(_F(NOM_PARA='NUME_ORDRE',
                      VALE_I=5,),
                   _F(NOM_PARA='NUME_FILET',
                      VALE_I=6,),
                   ),
           )

TEST_TABLE(PRECISION=0.076700000000000004,
           VALE_CALC=255513.190802,
           VALE_REFE=2.73743E5,
           REFERENCE='NON_DEFINI',
           NOM_PARA='REACTION',
           TABLE=NTFORC,
           FILTRE=(_F(NOM_PARA='NUME_ORDRE',
                      VALE_I=5,),
                   _F(NOM_PARA='NUME_FILET',
                      VALE_I=7,),
                   ),
           )

TEST_TABLE(PRECISION=0.19800000000000001,
           VALE_CALC=53117.0633287,
           VALE_REFE=4.4344599999999999E4,
           REFERENCE='NON_DEFINI',
           NOM_PARA='REACTION',
           TABLE=NTFORC,
           FILTRE=(_F(NOM_PARA='NUME_ORDRE',
                      VALE_I=5,),
                   _F(NOM_PARA='NUME_FILET',
                      VALE_I=28,),
                   ),
           )

TEST_TABLE(PRECISION=0.10199999999999999,
           VALE_CALC=43174.7234364,
           VALE_REFE=4.8074599999999999E4,
           REFERENCE='NON_DEFINI',
           NOM_PARA='REACTION',
           TABLE=NTFORC,
           FILTRE=(_F(NOM_PARA='NUME_ORDRE',
                      VALE_I=5,),
                   _F(NOM_PARA='NUME_FILET',
                      VALE_I=55,),
                   ),
           )

TEST_TABLE(PRECISION=0.062799999999999995,
           VALE_CALC=48887.120372,
           VALE_REFE=5.2162400000000001E4,
           REFERENCE='NON_DEFINI',
           NOM_PARA='REACTION',
           TABLE=NTFORC,
           FILTRE=(_F(NOM_PARA='NUME_ORDRE',
                      VALE_I=5,),
                   _F(NOM_PARA='NUME_FILET',
                      VALE_I=56,),
                   ),
           )

# TEST DES VALEURS PAR RAPPORT AUX RESULTATS ASTER
# (TEST DE NON REGRESSION)
# PAS DE CHARGE 1

TEST_TABLE(
           VALE_CALC=93598.8485486,
           TOLE_MACHINE=1.E-4,
           NOM_PARA='REACTION',
           TABLE=NTFORC,
           FILTRE=(_F(NOM_PARA='NUME_ORDRE',
                      VALE_I=1,),
                   _F(NOM_PARA='NUME_FILET',
                      VALE_I=1,),
                   ),
           )

TEST_TABLE(
           VALE_CALC=82043.985956,
           TOLE_MACHINE=1.E-4,
           NOM_PARA='REACTION',
           TABLE=NTFORC,
           FILTRE=(_F(NOM_PARA='NUME_ORDRE',
                      VALE_I=1,),
                   _F(NOM_PARA='NUME_FILET',
                      VALE_I=2,),
                   ),
           )

TEST_TABLE(
           VALE_CALC=61374.3690449,
           TOLE_MACHINE=1.E-4,
           NOM_PARA='REACTION',
           TABLE=NTFORC,
           FILTRE=(_F(NOM_PARA='NUME_ORDRE',
                      VALE_I=1,),
                   _F(NOM_PARA='NUME_FILET',
                      VALE_I=5,),
                   ),
           )

TEST_TABLE(
           VALE_CALC=54491.2223692,
           TOLE_MACHINE=1.E-4,
           NOM_PARA='REACTION',
           TABLE=NTFORC,
           FILTRE=(_F(NOM_PARA='NUME_ORDRE',
                      VALE_I=1,),
                   _F(NOM_PARA='NUME_FILET',
                      VALE_I=6,),
                   ),
           )

TEST_TABLE(
           VALE_CALC=48909.2457646,
           TOLE_MACHINE=1.E-4,
           NOM_PARA='REACTION',
           TABLE=NTFORC,
           FILTRE=(_F(NOM_PARA='NUME_ORDRE',
                      VALE_I=1,),
                   _F(NOM_PARA='NUME_FILET',
                      VALE_I=7,),
                   ),
           )

TEST_TABLE(
           VALE_CALC=10317.8108132,
           TOLE_MACHINE=1.E-4,
           NOM_PARA='REACTION',
           TABLE=NTFORC,
           FILTRE=(_F(NOM_PARA='NUME_ORDRE',
                      VALE_I=1,),
                   _F(NOM_PARA='NUME_FILET',
                      VALE_I=28,),
                   ),
           )

TEST_TABLE(
           VALE_CALC=8448.4589039,
           TOLE_MACHINE=1.E-4,
           NOM_PARA='REACTION',
           TABLE=NTFORC,
           FILTRE=(_F(NOM_PARA='NUME_ORDRE',
                      VALE_I=1,),
                   _F(NOM_PARA='NUME_FILET',
                      VALE_I=55,),
                   ),
           )

TEST_TABLE(
           VALE_CALC=9567.14065273,
           TOLE_MACHINE=1.E-4,
           NOM_PARA='REACTION',
           TABLE=NTFORC,
           FILTRE=(_F(NOM_PARA='NUME_ORDRE',
                      VALE_I=1,),
                   _F(NOM_PARA='NUME_FILET',
                      VALE_I=56,),
                   ),
           )

# PAS DE CHARGE 5

TEST_TABLE(
           VALE_CALC=375965.577566,
           TOLE_MACHINE=1.E-4,
           NOM_PARA='REACTION',
           TABLE=NTFORC,
           FILTRE=(_F(NOM_PARA='NUME_ORDRE',
                      VALE_I=5,),
                   _F(NOM_PARA='NUME_FILET',
                      VALE_I=1,),
                   ),
           )

TEST_TABLE(
           VALE_CALC=363798.630192,
           TOLE_MACHINE=1.E-4,
           NOM_PARA='REACTION',
           TABLE=NTFORC,
           FILTRE=(_F(NOM_PARA='NUME_ORDRE',
                      VALE_I=5,),
                   _F(NOM_PARA='NUME_FILET',
                      VALE_I=2,),
                   ),
           )

TEST_TABLE(
           VALE_CALC=309596.464535,
           TOLE_MACHINE=1.E-4,
           NOM_PARA='REACTION',
           TABLE=NTFORC,
           FILTRE=(_F(NOM_PARA='NUME_ORDRE',
                      VALE_I=5,),
                   _F(NOM_PARA='NUME_FILET',
                      VALE_I=5,),
                   ),
           )

TEST_TABLE(
           VALE_CALC=284261.434285,
           TOLE_MACHINE=1.E-4,
           NOM_PARA='REACTION',
           TABLE=NTFORC,
           FILTRE=(_F(NOM_PARA='NUME_ORDRE',
                      VALE_I=5,),
                   _F(NOM_PARA='NUME_FILET',
                      VALE_I=6,),
                   ),
           )

TEST_TABLE(
           VALE_CALC=255513.190802,
           TOLE_MACHINE=1.E-4,
           NOM_PARA='REACTION',
           TABLE=NTFORC,
           FILTRE=(_F(NOM_PARA='NUME_ORDRE',
                      VALE_I=5,),
                   _F(NOM_PARA='NUME_FILET',
                      VALE_I=7,),
                   ),
           )

TEST_TABLE(
           VALE_CALC=53117.0633287,
           TOLE_MACHINE=1.E-4,
           NOM_PARA='REACTION',
           TABLE=NTFORC,
           FILTRE=(_F(NOM_PARA='NUME_ORDRE',
                      VALE_I=5,),
                   _F(NOM_PARA='NUME_FILET',
                      VALE_I=28,),
                   ),
           )

TEST_TABLE(
           VALE_CALC=43174.7234364,
           TOLE_MACHINE=1.E-4,
           NOM_PARA='REACTION',
           TABLE=NTFORC,
           FILTRE=(_F(NOM_PARA='NUME_ORDRE',
                      VALE_I=5,),
                   _F(NOM_PARA='NUME_FILET',
                      VALE_I=55,),
                   ),
           )

TEST_TABLE(
           VALE_CALC=48887.120372,
           TOLE_MACHINE=1.E-4,
           NOM_PARA='REACTION',
           TABLE=NTFORC,
           FILTRE=(_F(NOM_PARA='NUME_ORDRE',
                      VALE_I=5,),
                   _F(NOM_PARA='NUME_FILET',
                      VALE_I=56,),
                   ),
           )

FIN();
#
