# MODIF  DATE 13/02/2007   AUTEUR PELLET J.PELLET 
# RESPONSABLE F6BHHBO P.DEBONNIERES
# TITRE VALIDATION DE NON REGRESSION DU CHAINAGE 2D CYRANO3-CODE_ASTER
#            CONFIGURATION MANAGEMENT OF EDF VERSION
# ======================================================================
# COPYRIGHT (C) 1991 - 2001  EDF R&D                  WWW.CODE-ASTER.ORG
# THIS PROGRAM IS FREE SOFTWARE; YOU CAN REDISTRIBUTE IT AND/OR MODIFY
# IT UNDER THE TERMS OF THE GNU GENERAL PUBLIC LICENSE AS PUBLISHED BY
# THE FREE SOFTWARE FOUNDATION; EITHER VERSION 2 OF THE LICENSE, OR
# (AT YOUR OPTION) ANY LATER VERSION.
#
# THIS PROGRAM IS DISTRIBUTED IN THE HOPE THAT IT WILL BE USEFUL, BUT
# WITHOUT ANY WARRANTY; WITHOUT EVEN THE IMPLIED WARRANTY OF
# MERCHANTABILITY OR FITNESS FOR A PARTICULAR PURPOSE. SEE THE GNU
# GENERAL PUBLIC LICENSE FOR MORE DETAILS.
#
# YOU SHOULD HAVE RECEIVED A COPY OF THE GNU GENERAL PUBLIC LICENSE
# ALONG WITH THIS PROGRAM; IF NOT, WRITE TO EDF R&D CODE_ASTER,
#    1 AVENUE DU GENERAL DE GAULLE, 92141 CLAMART CEDEX, FRANCE.
# ======================================================================
#********************************************************************
# - CALCUL THERMOMECANIQUE 2D AXISYMETRIQUE
# - COMPATIBLE CYRANO3 VERSION 2.6
# - COMPARAISON AVEC RESULTATS CAS-TEST TEST1C3 DE CYRANO3 REPRIS
#   A L'INSTANT 101 SUR LA TRANCHE NUMERO 3.
#********************************************************************
#


DEBUT(CODE=_F(  NOM = 'ZZZZ113B',NIV_PUB_WEB='INTRANET'))

#

# --- CREATION DU CONCEPT MAILLAGE ASTER

#     ----------------------------------

#


MA=LIRE_MAILLAGE()

#

# --- CREATION DE GROUPES DE NOEUDS A PARTIR

# --- DES GROUPES DE MAILLES GIBI

#     --------------------------------------

#


MA=DEFI_GROUP( reuse=MA,
                MAILLAGE=MA,
           CREA_GROUP_NO=_F(  TOUT_GROUP_MA = 'OUI')
                   )

#

# --- CHOIX DU MODELE : 2-D AXISYMETRIQUE

#     -----------------------------------

#


MO=AFFE_MODELE(
                MAILLAGE=MA,
                AFFE=_F(  TOUT = 'OUI',
                       PHENOMENE = 'MECANIQUE',
                       MODELISATION = 'AXIS')  )

#

# ---DEFINITION DE LA LISTE D'INSTANTS

# ---LE PREMIER EST L'INSTANT INITIAL (DEJA CALCULE)

#    ------------------------------------------------

#


LINST=DEFI_LIST_REEL(
              VALE=(
                25.0452800000,
                25.0564000000,
                      ) )

#

# --- LECTURE DU DATASET IDEAS *.UNV1

# --- (CONTRAINTES,VARIABLES INTERNES) INSTANT INTIAL

#    ------------------------------------------------

#


INIT=LIRE_RESU(
                  MODELE=MO,
                   UNITE=50,
                  FORMAT='IDEAS',
                TYPE_RESU='EVOL_NOLI',
                NOM_CHAM=( 'VARI_ELNO','SIEF_ELNO',),
                 NB_VARI=2,
                       INST=25.045280000000
                   )

#

# --- EXTRACTION CHAMP DE CONTRAINTES ETAT INITIAL

#     --------------------------------------------

#


CHSIG0=CREA_CHAMP( OPERATION='EXTR', TYPE_CHAM='ELNO_SIEF_R',
RESULTAT=INIT, NUME_ORDRE=1,
                         NOM_CHAM='SIEF_ELNO' )

#

# --- EXTRACTION CHAMP DE VAR.INTERNES ETAT INITIAL

#     ---------------------------------------------

#


CHVAR0=CREA_CHAMP( OPERATION='EXTR', TYPE_CHAM='ELNO_VARI_R',
RESULTAT=INIT, NUME_ORDRE=1,
                         NOM_CHAM='VARI_ELNO' )

#

# --- LECTURE DU DATASET IDEAS *.UNV2

# --- DEFORMATIONS ANELASTIQUES A CHAQUE INSTANT

#    ---------------------------------------------------

#


ANEL=LIRE_RESU( MODELE=MO, UNITE=51, FORMAT='IDEAS', TYPE_RESU='EVOL_NOLI',
                NOM_CHAM=( 'EPSA_ELNO',), LIST_INST=LINST , PRECISION= 0.001, CRITERE='ABSOLU' )


#

# --- FONCTION DE FLUX NEUTRONIQUE : PARAMETRE

# --- POUR LA LOI DE VISCOPLASTICITE GAINE

#     -----------------------------------------

#


FLUX=DEFI_FONCTION(   NOM_PARA='INST',
              VALE=(
                25.0452800000, 9.348739619999344E+13,
                25.0564000000, 9.448726139999328E+13,
                      ) )

#

# --- MODULE D'YOUNG POUR LA PASTILLE : POUR CHAQUE

# --- PAS DE TEMPS IDT ON DEFINIT UNE FONCTION

# --- YP(IDT) DEPENDANT DE LA TEMPERATURE T

#     ---------------------------------------------

#

YP01=DEFI_FONCTION(   NOM_PARA='TEMP',
             VALE=(
     462.87225357687,    179397.13678432,
     501.16326708612,    178371.86608571,
     501.16526708612,    179127.47538985,
     540.38375760566,    178072.92208322,
     540.38575760566,    178707.32848069,
     580.60117706935,    177622.11576205,
     580.60317706935,    178220.83817798,
     621.87589209747,    177103.33984011,
     621.87789209747,    177669.21977625,
     664.25752175233,    176518.08392234,
     664.25952175233,    177053.22465127,
     707.79769489033,    175867.03427621,
     707.79969489032,    176373.34895825,
     752.56731734782,    175150.15062712,
     752.56931734782,    175629.37938615,
     798.66002928457,    174366.58380610,
     798.66202928457,    174820.42740358,
     846.31738280651,    173511.36488710,
     846.31938280651,    173941.42666419,
     910.98827432722,    172160.60943817,
                     )    )

YP02=DEFI_FONCTION(   NOM_PARA='TEMP',
             VALE=(
     464.36733226877,    179245.36024527,
     503.14671315839,    178207.66006296,
     503.14871315839,    178977.12193368,
     542.87415253231,    177909.51591432,
     542.87615253231,    178555.09612719,
     583.61521469916,    177456.27618013,
     583.61721469916,    178065.12456760,
     625.43153964123,    176933.43260001,
     625.43353964123,    177508.47206729,
     668.37746054910,    176342.43017562,
     668.37946054910,    176885.81051090,
     712.51024450536,    175683.84941866,
     712.51224450536,    176197.51996815,
     757.90553087907,    174957.55767027,
     757.90753087907,    175443.29258314,
     804.66158850010,    174162.61337290,
     804.66358850010,    174622.17343700,
     853.02277253068,    173294.03113544,
     853.02477253068,    173729.11420954,
     918.67292751162,    171921.61836101,
                     )    )

#

# --- GENERATION DE LA NAPPE MATERIAU FONCTION

# --- DU TEMPS ET DE LA TEMPERATURE

#     ----------------------------------------

#


YP=DEFI_NAPPE(   NOM_PARA='INST',
             PARA=(
                25.0452800000,
                25.0564000000,
                      ),
             FONCTION=(
            YP01,
            YP02,
           ) )

#

# --- MODULE D'YOUNG POUR LA GAINE : POUR CHAQUE

# --- PAS DE TEMPS IDT ON DEFINIT UNE FONCTION

# --- YP(IDT) DEPENDANT DE LA TEMPERATURE T

#     -------------------------------------------

#

YG01=DEFI_FONCTION(   NOM_PARA='TEMP',
             VALE=(
     339.01167196359,    77417.323026112,
     343.50891345252,    77156.483019754,
     343.51091345252,    77156.367019754,
     347.97651406997,    76897.362183942,
     347.97851406997,    76897.246183942,
     352.54174277840,    76632.578918853,
     352.54374277840,    76632.462918853,
     357.20909918245,    76361.872247418,
     357.21109918245,    76361.756247418,
     361.98454548393,    76084.896361932,
                     )    )

YG02=DEFI_FONCTION(   NOM_PARA='TEMP',
             VALE=(
     339.59144285875,    77383.696314192,
     344.12644371618,    77120.666264462,
     344.12844371618,    77120.550264462,
     348.64374696137,    76858.662676240,
     348.64574696137,    76858.546676240,
     353.25823408253,    76591.022423214,
     353.26023408252,    76590.906423214,
     357.97510974025,    76317.443635065,
     357.97710974025,    76317.327635065,
     362.80087445048,    76037.549281872,
                     )    )

#

# --- GENERATION DE LA NAPPE MATERIAU FONCTION

# --- DU TEMPS ET DE LA TEMPERATURE

#     ----------------------------------------

#


YG=DEFI_NAPPE(   NOM_PARA='INST',
             PARA=(
                25.0452800000,
                25.0564000000,
                      ),
             FONCTION=(
            YG01,
            YG02,
           ) )

#

# --- COEFFICIENT DE POISSON POUR LA PASTILLE

#     ---------------------------------------

#

POISSONP=DEFI_CONSTANTE(      VALE=0.31000000000000)

#

# --- COEFFICIENT POISSON POUR LA GAINE : POUR CHAQUE

# --- PAS DE TEMPS IDT ON DEFINIT UNE FONCTION

# --- PG(IDT) DEPENDANT DE LA TEMPERATURE T

#     ---------------------------------------------

#

PG01=DEFI_FONCTION(   NOM_PARA='TEMP',
             VALE=(
     339.01167196359,   0.25528452933259,
     343.50891345252,   0.25471787690498,
     343.51091345252,   0.25471762490498,
     347.97651406997,   0.25415495922718,
     347.97851406997,   0.25415470722718,
     352.54174277840,   0.25357974040992,
     352.54374277840,   0.25357948840992,
     357.20909918245,   0.25299165350301,
     357.21109918245,   0.25299140150301,
     361.98454548393,   0.25238994726903,
                     )    )

PG02=DEFI_FONCTION(   NOM_PARA='TEMP',
             VALE=(
     339.59144285875,   0.25521147819980,
     344.12644371618,   0.25464006809176,
     344.12844371618,   0.25463981609176,
     348.64374696137,   0.25407088788287,
     348.64574696137,   0.25407063588287,
     353.25823408253,   0.25348946250560,
     353.26023408252,   0.25348921050560,
     357.97510974025,   0.25289513617273,
     357.97710974025,   0.25289488417273,
     362.80087445048,   0.25228708981924,
                     )    )

#

# --- GENERATION DE LA NAPPE MATERIAU FONCTION

# --- DU TEMPS ET DE LA TEMPERATURE

#     ----------------------------------------

#


PG=DEFI_NAPPE(   NOM_PARA='INST',
             PARA=(
                25.0452800000,
                25.0564000000,
                      ),
             FONCTION=(
            PG01,
            PG02,
           ) )

#

# --- COEFF.DILATATION PASTILLE : POUR CHAQUE

# --- PAS DE TEMPS IDT ON DEFINIT UNE FONCTION

# --- DP(IDT) DEPENDANT DE LA TEMPERATURE T

#     ----------------------------------------

#
DP=DEFI_FONCTION(   NOM_PARA='TEMP',
             VALE=(
     462.87125357687,    7.7652334121462E-06,
     462.87325357687,    7.7652408125422E-06,
     501.16326708612,    7.9045686842491E-06,
     501.16526708612,    7.9045758482521E-06,
     540.38375760566,    8.0431038808148E-06,
     540.38575760566,    8.0431108528884E-06,
     580.60117706935,    8.1816596400514E-06,
     580.60317706935,    8.1816664543033E-06,
     621.87589209747,    8.3208876543387E-06,
     621.87789209747,    8.3208943373976E-06,
     664.25752175233,    8.4613024304128E-06,
     664.25952175233,    8.4613090033947E-06,
     707.79769489033,    8.6033509840584E-06,
     707.79969489032,    8.6033574639116E-06,
     752.56731734782,    8.7474853328082E-06,
     752.56931734782,    8.7474917332561E-06,
     798.66002928457,    8.8941830943182E-06,
     798.66202928457,    8.8941894265626E-06,
     846.31738280651,    9.0443472154387E-06,
     846.31938280651,    9.0443534885524E-06,
     910.98727432722,    9.2460836833605E-06,
     910.98927432722,    9.2460898905914E-06,
                   ) ,  PROL_GAUCHE='CONSTANT',   )

#

# --- COEFF.DILATATION GAINE

DG=DEFI_FONCTION(   NOM_PARA='TEMP',
             VALE=(
     339.01167196359,    6.0210241005699E-06,
     343.51091345252,    6.0301922535591E-06,
     347.97851406997,    6.0390613445798E-06,
     352.54374277840,    6.0478920386167E-06,
     357.21109918245,    6.0566869354197E-06,
     362.80087445048,    6.066E-06,
                     ) ,
         PROL_GAUCHE='CONSTANT',
  )

#

# --- DEFORMATION MESUREE APRES UN TEST DE FLUAGE :

# --- PARAMETRE DE LA LOI VISCOPLASTICITE GAINE

#     ---------------------------------------------

#


EFAB=DEFI_CONSTANTE(      VALE=0.60000000000000)

#

# --- TEMPERATURE DU TEST DE FLUAGE :

# --- PARAMETRE DE LA LOI VISCOPLASTICITE GAINE

#     ---------------------------------------------

#


TFAB=DEFI_CONSTANTE(       VALE=470.00000000000)

#

# --- MATERIAU PASTILLE

#     -----------------

#


MATERP=DEFI_MATERIAU(
         #   ELAS_FO=_F(  E = YP, NU = POISSONP, ALPHA = DP,
            ELAS_FO=_F(  E = YP01, NU = POISSONP, ALPHA = DP,
            TEMP_DEF_ALPHA=0.,),
            LEMAITRE=_F(  N = 1.,
                       UN_SUR_K = 0.,
                       UN_SUR_M = 0.) )

#

# --- MATERIAU GAINE

#     --------------

#


MATERG=DEFI_MATERIAU(
            ELAS_FO=_F(  E = YG, NU = PG,  ALPHA = DG,
            TEMP_DEF_ALPHA=0.,),
            ZIRC_CYRA2=_F(  FLUX_PHI = FLUX,
                         TEMP_RECUIT = TFAB,
                         EPSI_FAB = EFAB)
                    )

#

# --- CREATION DU CHAMP MATERIAU PASTILLE-GAINE

#     -----------------------------------------

#


CHMAT=AFFE_MATERIAU(    MAILLAGE=MA,AFFE=(
            _F(  GROUP_MA = 'PASTILLE',  MATER = MATERP,
          TEMP_REF = 0.),
            _F(  GROUP_MA = 'GAINE',  MATER = MATERG,
          TEMP_REF = 0.),),
            AFFE_VARC=_F(TOUT='OUI',EVOL=ANEL,NOM_VARC='EPSA',NOM_CHAM='EPSA_ELNO',PROL_DROITE='CONSTANT'),

                       )

#

# --- FONCTION PRESSION INTERNE PINT(T) EN MPA

#     ----------------------------------------

#


PINT=DEFI_FONCTION(
            NOM_PARA='INST',
             VALE=(
                25.0452800000,       8.281498848869195,
                25.0564000000,       8.301904680271491,
                     )   )

#

# --- FONCTION PRESSION EXTERNE PEXT(T) EN MPA

#     ----------------------------------------

#


PEXT=DEFI_FONCTION(
            NOM_PARA='INST',
             VALE=(
                25.0452800000,      15.500000000000000,
                25.0564000000,      15.500000000000000,
                     )   )

#

# --- CONTRAINTE AXIALE PASTILLE

#     --------------------------

#


FORCEP=DEFI_FONCTION(
            NOM_PARA='INST',
             VALE=(
                25.0452800000,      -8.468295626405192,
                25.0564000000,      -8.488701457807489,
                     )   )

#

# --- CONTRAINTE AXIALE GAINE

#     -----------------------

#

FORCEG=DEFI_FONCTION(
            NOM_PARA='INST',
             VALE=(
                25.0452800000,       -40.3961806808399,
                25.0564000000,       -40.3261351319128,
                     )   )

#

# --- GENERATION DES CHAMPS AUX NOEUDS DE TEMPERATURE

# --- PROVENANT DE CYRANO3, AFFECTATION PAR GROUPE DE

# --- MAILLES VERTICALES BPM(I) I=1,NA+NGN+2. LES

# --- CHAMPS SONT INDICES SUR LE TEMPS TP(T).

#     -----------------------------------------------

#

TP01=CREA_CHAMP( OPERATION='AFFE', TYPE_CHAM='NOEU_TEMP_R',
      MAILLAGE=MA,AFFE=(

   _F(  NOM_CMP = 'TEMP',  GROUP_NO = 'BPM01',  VALE = 910.98827432722),
   _F(  NOM_CMP = 'TEMP',  GROUP_NO = 'BPM02',  VALE = 846.31838280651),
   _F(  NOM_CMP = 'TEMP',  GROUP_NO = 'BPM03',  VALE = 798.66102928457),
   _F(  NOM_CMP = 'TEMP',  GROUP_NO = 'BPM04',  VALE = 752.56831734782),
   _F(  NOM_CMP = 'TEMP',  GROUP_NO = 'BPM05',  VALE = 707.79869489033),
   _F(  NOM_CMP = 'TEMP',  GROUP_NO = 'BPM06',  VALE = 664.25852175233),
   _F(  NOM_CMP = 'TEMP',  GROUP_NO = 'BPM07',  VALE = 621.87689209747),
   _F(  NOM_CMP = 'TEMP',  GROUP_NO = 'BPM08',  VALE = 580.60217706935),
   _F(  NOM_CMP = 'TEMP',  GROUP_NO = 'BPM09',  VALE = 540.38475760566),
   _F(  NOM_CMP = 'TEMP',  GROUP_NO = 'BPM10',  VALE = 501.16426708612),
   _F(  NOM_CMP = 'TEMP',  GROUP_NO = 'BPM11',  VALE = 462.87225357687),
   _F(  NOM_CMP = 'TEMP',  GROUP_NO = 'BPM12',  VALE = 361.98454548393),
   _F(  NOM_CMP = 'TEMP',  GROUP_NO = 'BPM13',  VALE = 357.21009918245),
   _F(  NOM_CMP = 'TEMP',  GROUP_NO = 'BPM14',  VALE = 352.54274277840),
   _F(  NOM_CMP = 'TEMP',  GROUP_NO = 'BPM15',  VALE = 347.97751406997),
   _F(  NOM_CMP = 'TEMP',  GROUP_NO = 'BPM16',  VALE = 343.50991345252),
   _F(  NOM_CMP = 'TEMP',  GROUP_NO = 'BPM17',  VALE = 339.01167196359))
                                  )

TP02=CREA_CHAMP( OPERATION='AFFE', TYPE_CHAM='NOEU_TEMP_R',
      MAILLAGE=MA,AFFE=(

   _F(  NOM_CMP = 'TEMP',  GROUP_NO = 'BPM01',  VALE = 918.67292751162),
   _F(  NOM_CMP = 'TEMP',  GROUP_NO = 'BPM02',  VALE = 853.02377253068),
   _F(  NOM_CMP = 'TEMP',  GROUP_NO = 'BPM03',  VALE = 804.66258850010),
   _F(  NOM_CMP = 'TEMP',  GROUP_NO = 'BPM04',  VALE = 757.90653087907),
   _F(  NOM_CMP = 'TEMP',  GROUP_NO = 'BPM05',  VALE = 712.51124450536),
   _F(  NOM_CMP = 'TEMP',  GROUP_NO = 'BPM06',  VALE = 668.37846054910),
   _F(  NOM_CMP = 'TEMP',  GROUP_NO = 'BPM07',  VALE = 625.43253964123),
   _F(  NOM_CMP = 'TEMP',  GROUP_NO = 'BPM08',  VALE = 583.61621469916),
   _F(  NOM_CMP = 'TEMP',  GROUP_NO = 'BPM09',  VALE = 542.87515253231),
   _F(  NOM_CMP = 'TEMP',  GROUP_NO = 'BPM10',  VALE = 503.14771315839),
   _F(  NOM_CMP = 'TEMP',  GROUP_NO = 'BPM11',  VALE = 464.36733226877),
   _F(  NOM_CMP = 'TEMP',  GROUP_NO = 'BPM12',  VALE = 362.80087445048),
   _F(  NOM_CMP = 'TEMP',  GROUP_NO = 'BPM13',  VALE = 357.97610974025),
   _F(  NOM_CMP = 'TEMP',  GROUP_NO = 'BPM14',  VALE = 353.25923408252),
   _F(  NOM_CMP = 'TEMP',  GROUP_NO = 'BPM15',  VALE = 348.64474696137),
   _F(  NOM_CMP = 'TEMP',  GROUP_NO = 'BPM16',  VALE = 344.12744371618),
   _F(  NOM_CMP = 'TEMP',  GROUP_NO = 'BPM17',  VALE = 339.59144285875))
                                  )

#

# --- CREATION DE LA STRUCTURE EVOL_THER AVEC LES

# --- CHAMPS AUX NOEUDS PRECEDEMMENT DEFINIS

#     --------------------------------------------

#


EVOL=CREA_RESU(    OPERATION='AFFE', TYPE_RESU='EVOL_THER',
                       NOM_CHAM='TEMP',AFFE=(
      _F(  CHAM_GD = TP01,  INST = 25.0452800000, PRECISION = 1.E-6),
      _F(  CHAM_GD = TP02,  INST = 25.0564000000, PRECISION = 1.E-6))
                              )

#

# --- CHARGEMENT MECANIQUE EN PRESSION

#     --------------------------------

#


CHMEF=AFFE_CHAR_MECA_F(   MODELE=MO,PRES_REP=(
        _F(  GROUP_MA = ('BPM11',    'BPD12',   ),
                   PRES = PINT),
        _F(  GROUP_MA = 'BPM17',
                   PRES = PEXT)),FORCE_CONTOUR=(
       _F(  GROUP_MA = 'SEGS12',
                       FY = FORCEG),
       _F(  GROUP_MA = 'SEGPLA',
                       FY = FORCEP))

                                  )

#

# --- CONDITIONS AUX LIMITES, CONTACT UNILATERAL

# --- PASTILLE-GAINE, CHARGEMENT THERMIQUE.

#     ------------------------------------------

#


CHME=AFFE_CHAR_MECA(    MODELE=MO,DDL_IMPO=(
            _F(  GROUP_NO = ('SEGI10',  'SEGI16',  ),
                       DY = 0.),
            _F(  GROUP_NO = 'BPD01',
                       DX = 0.)),
     CONTACT=_F(
               REAC_GEOM = 'SANS',
               NORMALE = 'MAIT_ESCL',
               GROUP_MA_MAIT = 'BPM11',
               GROUP_MA_ESCL = 'BPD12'),
       TEMP_CALCULEE=EVOL,
                                  )

#

#--- AFFECTATION CHAMP DE DEPLACEMENT ETAT INITIAL

#--- DX = DEPLACEMENT RADIAL CYRANO3

#--- DY = DEFORMATION AXIALE TOTALE CYRANO3 / 100

#---      * COORDONNEE AXIALE DU POINT CONSIDERE

#    --------------------------------------------

#


CHDEP0=CREA_CHAMP( OPERATION='AFFE', TYPE_CHAM='NOEU_DEPL_R',
      MAILLAGE=MA,AFFE=(

   _F(  NOM_CMP = 'DX',  GROUP_NO = 'BPM01',   VALE = 0.0000000000),
   _F(  NOM_CMP = 'DX',  GROUP_NO = 'BPM02',   VALE = 0.0092097177),
   _F(  NOM_CMP = 'DX',  GROUP_NO = 'BPM03',   VALE = 0.0126920506),
   _F(  NOM_CMP = 'DX',  GROUP_NO = 'BPM04',   VALE = 0.0151536174),
   _F(  NOM_CMP = 'DX',  GROUP_NO = 'BPM05',   VALE = 0.0170610307),
   _F(  NOM_CMP = 'DX',  GROUP_NO = 'BPM06',   VALE = 0.0186016553),
   _F(  NOM_CMP = 'DX',  GROUP_NO = 'BPM07',   VALE = 0.0198748204),
   _F(  NOM_CMP = 'DX',  GROUP_NO = 'BPM08',   VALE = 0.0209413988),
   _F(  NOM_CMP = 'DX',  GROUP_NO = 'BPM09',   VALE = 0.0218422353),
   _F(  NOM_CMP = 'DX',  GROUP_NO = 'BPM10',   VALE = 0.0226064627),
   _F(  NOM_CMP = 'DX',  GROUP_NO = 'BPM11',   VALE = 0.0232557961),
   _F(  NOM_CMP = 'DX',  GROUP_NO = 'BPM12',   VALE = 0.0047689004),
   _F(  NOM_CMP = 'DX',  GROUP_NO = 'BPM13',   VALE = 0.0050693164),
   _F(  NOM_CMP = 'DX',  GROUP_NO = 'BPM14',   VALE = 0.0053608878),
   _F(  NOM_CMP = 'DX',  GROUP_NO = 'BPM15',   VALE = 0.0056441598),
   _F(  NOM_CMP = 'DX',  GROUP_NO = 'BPM16',   VALE = 0.0059196251),
   _F(  NOM_CMP = 'DX',  GROUP_NO = 'BPM17',   VALE = 0.0061876715),
   _F(  NOM_CMP = 'DY',  NOEUD = 'N1',    VALE = 0.0085157209),
   _F(  NOM_CMP = 'DY',  NOEUD = 'N2',    VALE = 0.0086930346),
   _F(  NOM_CMP = 'DY',  NOEUD = 'N3',    VALE = 0.0088708085),
   _F(  NOM_CMP = 'DY',  NOEUD = 'N4',    VALE = 0.0090507655),
   _F(  NOM_CMP = 'DY',  NOEUD = 'N5',    VALE = 0.0094194625),
   _F(  NOM_CMP = 'DY',  NOEUD = 'N6',    VALE = 0.0092342244),
   _F(  NOM_CMP = 'DY',  NOEUD = 'N7',    VALE = 0.0076641489),
   _F(  NOM_CMP = 'DY',  NOEUD = 'N8',    VALE = 0.0078237312),
   _F(  NOM_CMP = 'DY',  NOEUD = 'N9',    VALE = 0.0079837278),
   _F(  NOM_CMP = 'DY',  NOEUD = 'N10',   VALE = 0.0081456891),
   _F(  NOM_CMP = 'DY',  NOEUD = 'N11',   VALE = 0.0084775164),
   _F(  NOM_CMP = 'DY',  NOEUD = 'N12',   VALE = 0.0083108021),
   _F(  NOM_CMP = 'DY',  NOEUD = 'N13',   VALE = 0.0068125768),
   _F(  NOM_CMP = 'DY',  NOEUD = 'N14',   VALE = 0.0069544278),
   _F(  NOM_CMP = 'DY',  NOEUD = 'N15',   VALE = 0.0070966469),
   _F(  NOM_CMP = 'DY',  NOEUD = 'N16',   VALE = 0.0072406125),
   _F(  NOM_CMP = 'DY',  NOEUD = 'N17',   VALE = 0.0075355701),
   _F(  NOM_CMP = 'DY',  NOEUD = 'N18',   VALE = 0.0073873796),
   _F(  NOM_CMP = 'DY',  NOEUD = 'N19',   VALE = 0.0059610047),
   _F(  NOM_CMP = 'DY',  NOEUD = 'N20',   VALE = 0.0060851243),
# ... 166 like lines cut
   _F(  NOM_CMP = 'DY',  NOEUD = 'N187',  VALE = 0.0243784067))
                                  )

#

# --- OPERATEUR GLOBAL DE RESOLUTION NON LINEAIRE :

# --- LE CALCUL EST ELASTIQUE DANS LA PASTILLE (PORO_

# --- CYRA2) ET VISCOPLASTIQUE DANS LA GAINE (ZIRC_

# --- CYRA2)

#     -----------------------------------------------

#


MDEP=STAT_NON_LINE(
                            MODELE=MO,
                        CHAM_MATER=CHMAT,
                         ETAT_INIT=_F(
                SIGM = CHSIG0,
                DEPL = CHDEP0,
                VARI = CHVAR0),EXCIT=(
                             _F(
                CHARGE = CHME),
                             _F(
                CHARGE = CHMEF)),COMP_INCR=(
                         _F( PARM_THETA = 0.5,
                RELATION = 'LEMAITRE',
                GROUP_MA = 'PASTILLE',
                ITER_INTE_MAXI = 1000),
                         _F( PARM_THETA = 0.5,
                RELATION = 'ZIRC_CYRA2',
                GROUP_MA = 'GAINE',
                ITER_INTE_MAXI = 1000),),
                         INCREMENT=_F(
                LIST_INST = LINST),
                            NEWTON=_F(
                MATRICE = 'TANGENTE',
                REAC_ITER = 1),
                       CONVERGENCE=_F(
                RESI_GLOB_MAXI = 1.E-4,
                ITER_GLOB_MAXI = 10,),
                              INFO=1
              )

MDEP=CALC_ELEM( reuse=MDEP,
                            OPTION=(
                  'SIEF_ELNO_ELGA',  'VARI_ELNO_ELGA',),

                          RESULTAT=MDEP,
              )

#

# --- CALCUL DES DEFORMATIONS AUX NOEUDS

#     ----------------------------------

#


MDEP=CALC_ELEM( reuse=MDEP,
                         NUME_ORDRE=1,
                       OPTION=('EPSI_ELNO_DEPL',
                               'EQUI_ELNO_SIGM',),

                       RESULTAT=MDEP )

#

# --- EXTRACTION EN MILIEU DE PASTILLE

#     --------------------------------

#


MILSUP=POST_RELEVE_T( ACTION=(
       _F(
     GROUP_NO = 'SEGI10',
     RESULTAT = MDEP,
     NOM_CHAM = 'DEPL',
     NUME_ORDRE = 1,
     NOM_CMP = ( 'DX','DY',),
     INTITULE = 'MILPASDE',
     OPERATION = 'EXTRACTION'),

       _F(
     GROUP_NO = 'SEGI10',
     RESULTAT = MDEP,
     NOM_CHAM = 'SIEF_ELNO_ELGA',
     NUME_ORDRE = 1,
     INTITULE = 'MILPASSI',
     INVARIANT = 'OUI',
     OPERATION = 'EXTRACTION'),

 #
 # --- EXTRACTION EN MILIEU DE GAINE
 #     -----------------------------
 #

       _F(
     GROUP_NO = 'SEGI16',
     RESULTAT = MDEP,
     NOM_CHAM = 'DEPL',
     NUME_ORDRE = 1,
     NOM_CMP = ( 'DX','DY',),
     INTITULE = 'MILGAIDE',
     OPERATION = 'EXTRACTION'),

       _F(
     GROUP_NO = 'SEGI16',
     RESULTAT = MDEP,
     NOM_CHAM = 'SIEF_ELNO_ELGA',
     NUME_ORDRE = 1,
     INTITULE = 'MILGAISI',
     INVARIANT = 'OUI',
     OPERATION = 'EXTRACTION'),


 #
 # --- EXTRACTION EXTREMITE SUPERIEURE PASTILLE
 #     ----------------------------------------
 #

       _F(
     GROUP_NO = 'SEGS01',
     RESULTAT = MDEP,
     NOM_CHAM = 'DEPL',
     NUME_ORDRE = 1,
     NOM_CMP = ( 'DX','DY',),
     INTITULE = 'BSUP_P_D',
     OPERATION = 'EXTRACTION'),

       _F(
     GROUP_NO = 'SEGS01',
     RESULTAT = MDEP,
     NOM_CHAM = 'SIEF_ELNO_ELGA',
     NUME_ORDRE = 1,
     INTITULE = 'BSUP_P_S',
     INVARIANT = 'OUI',
     OPERATION = 'EXTRACTION'),

 #
 # --- EXTRACTION EXTREMITE SUPERIEURE GAINE
 #     -------------------------------------
 #

       _F(
     GROUP_NO = 'SEGS12',
     RESULTAT = MDEP,
     NOM_CHAM = 'DEPL',
     NUME_ORDRE = 1,
     NOM_CMP = ( 'DX','DY',),
     INTITULE = 'BSUP_G_D',
     OPERATION = 'EXTRACTION'),

       _F(
     GROUP_NO = 'SEGS12',
     RESULTAT = MDEP,
     NOM_CHAM = 'SIEF_ELNO_ELGA',
     NUME_ORDRE = 1,
     INTITULE = 'BSUP_G_S',
     INVARIANT = 'OUI',
     OPERATION = 'EXTRACTION'))

                                 )

TEST_TABLE(
                  TABLE=MILSUP,
                 FILTRE=_F(  NOM_PARA = 'NOEUD',  VALE_K = 'N77'),
                            NOM_PARA='DX',     VALE=2.350E-02
            )

TEST_TABLE(
                  TABLE=MILSUP,
                 FILTRE=_F(  NOM_PARA = 'NOEUD',  VALE_K = 'N41'),
                            NOM_PARA='DX',     VALE=6.217E-03
            )

TEST_TABLE(
                  TABLE=MILSUP,
                 FILTRE=_F(  NOM_PARA = 'NOEUD',  VALE_K = 'N66'),
                            NOM_PARA='DX',     VALE=4.796E-03
            )

TEST_TABLE(
                  TABLE=MILSUP,
                 FILTRE=_F(  NOM_PARA = 'NOEUD',  VALE_K = 'N67'),
                            NOM_PARA='DX',     VALE=2.335E-02
            )

TEST_TABLE(
                  TABLE=MILSUP,
                 FILTRE=_F(  NOM_PARA = 'NOEUD',  VALE_K = 'N1'),
                            NOM_PARA='DX',     VALE=6.219E-03
            )

TEST_TABLE(
                  TABLE=MILSUP,
                 FILTRE=_F(  NOM_PARA = 'NOEUD',  VALE_K = 'N5'),
                            NOM_PARA='DX',     VALE=4.798E-03
            )

TEST_TABLE(
                  TABLE=MILSUP,
                 FILTRE=_F(  NOM_PARA = 'NOEUD',  VALE_K = 'N77'),
                            NOM_PARA='VMIS',     VALE=395.12
            )

TEST_TABLE(
                  TABLE=MILSUP,
                 FILTRE=_F(  NOM_PARA = 'NOEUD',  VALE_K = 'N41'),
                            NOM_PARA='VMIS',     VALE=38.80
            )

TEST_TABLE(
                  TABLE=MILSUP,
                 FILTRE=_F(  NOM_PARA = 'NOEUD',  VALE_K = 'N66'),
                            NOM_PARA='VMIS',     VALE=59.32
            )

TEST_TABLE(
                  TABLE=MILSUP,
                 FILTRE=_F(  NOM_PARA = 'NOEUD',  VALE_K = 'N67'),
                            NOM_PARA='VMIS',     VALE=390.
            )

TEST_TABLE(
                  TABLE=MILSUP,
                 FILTRE=_F(  NOM_PARA = 'NOEUD',  VALE_K = 'N1'),
                            NOM_PARA='VMIS',     VALE=38.78
            )

TEST_TABLE(
                  TABLE=MILSUP,
                 FILTRE=_F(  NOM_PARA = 'NOEUD',  VALE_K = 'N5'),
                            NOM_PARA='VMIS',     VALE=59.28
            )

FIN()
#
