%& MODIF OPTIONS  DATE 11/02/2002   AUTEUR BOITEAU O.BOITEAU 
%            CONFIGURATION MANAGEMENT OF EDF VERSION
% ======================================================================
% COPYRIGHT (C) 1991 - 2001  EDF R&D                  WWW.CODE-ASTER.ORG
% THIS PROGRAM IS FREE SOFTWARE; YOU CAN REDISTRIBUTE IT AND/OR MODIFY
% IT UNDER THE TERMS OF THE GNU GENERAL PUBLIC LICENSE AS PUBLISHED BY
% THE FREE SOFTWARE FOUNDATION; EITHER VERSION 2 OF THE LICENSE, OR   
% (AT YOUR OPTION) ANY LATER VERSION.                                 
%
% THIS PROGRAM IS DISTRIBUTED IN THE HOPE THAT IT WILL BE USEFUL, BUT 
% WITHOUT ANY WARRANTY; WITHOUT EVEN THE IMPLIED WARRANTY OF          
% MERCHANTABILITY OR FITNESS FOR A PARTICULAR PURPOSE. SEE THE GNU    
% GENERAL PUBLIC LICENSE FOR MORE DETAILS.                            
%
% YOU SHOULD HAVE RECEIVED A COPY OF THE GNU GENERAL PUBLIC LICENSE   
% ALONG WITH THIS PROGRAM; IF NOT, WRITE TO EDF R&D CODE_ASTER,       
%    1 AVENUE DU GENERAL DE GAULLE, 92141 CLAMART CEDEX, FRANCE.      
% ======================================================================
ERTH_ELNO_ELEM
<< OPTION DEDIEE A LA TRANSFORMATION DE L'INDICATEUR D'ERREUR SPATIALE EN
THERMIQUE (CF. ERTH_ELEM_TEMP_F/R) D'UN CHAMP PAR ELEMENT EN UN CHAMP AUX
NOEUDS PAR ELEMENT>>
OPTION__
   IN__
        PERREUR  ERRETEMP <<CARTE D'ERREUR, 15 COMPOSANTES PAR ELEMENT>>
   OUT__
PERRENO ERRETEMP ELNO__   <<IDEM AU NOEUDS PAR ELEMENT>>

