#& MODIF COMMUN  DATE 17/05/2004   AUTEUR ROMEO R.FERNANDES 
#            CONFIGURATION MANAGEMENT OF EDF VERSION
# ======================================================================
# COPYRIGHT (C) 1991 - 2003  EDF R&D                  WWW.CODE-ASTER.ORG
# THIS PROGRAM IS FREE SOFTWARE; YOU CAN REDISTRIBUTE IT AND/OR MODIFY  
# IT UNDER THE TERMS OF THE GNU GENERAL PUBLIC LICENSE AS PUBLISHED BY  
# THE FREE SOFTWARE FOUNDATION; EITHER VERSION 2 OF THE LICENSE, OR     
# (AT YOUR OPTION) ANY LATER VERSION.                                                  
#                                                                       
# THIS PROGRAM IS DISTRIBUTED IN THE HOPE THAT IT WILL BE USEFUL, BUT   
# WITHOUT ANY WARRANTY; WITHOUT EVEN THE IMPLIED WARRANTY OF            
# MERCHANTABILITY OR FITNESS FOR A PARTICULAR PURPOSE. SEE THE GNU      
# GENERAL PUBLIC LICENSE FOR MORE DETAILS.                              
#                                                                       
# YOU SHOULD HAVE RECEIVED A COPY OF THE GNU GENERAL PUBLIC LICENSE     
# ALONG WITH THIS PROGRAM; IF NOT, WRITE TO EDF R&D CODE_ASTER,         
#    1 AVENUE DU GENERAL DE GAULLE, 92141 CLAMART CEDEX, FRANCE.        
# ======================================================================
def C_COMP_INCR() : return FACT(statut='f',min=1,max='**',  #COMMUN#
           RELATION        =SIMP(statut='o',typ='TXM',defaut="VMIS_ISOT_TRAC",
                                 into=( "ELAS",
                                        "VMIS_ISOT_TRAC",
                                        "VMIS_ISOT_LINE",
                                        "VMIS_ECMI_TRAC",
                                        "VMIS_ECMI_LINE",
                                        "LABORD_1D",
                                        "ENDO_FRAGILE",
                                        "ENDO_ISOT_BETON",
                                        "MAZARS",
                                        "RUPT_FRAG",
                                        "BARENBLATT",
                                        "META_P_IL",
                                        "META_P_IL_PT",
                                        "META_P_IL_RE",
                                        "META_P_IL_PT_RE",
                                        "META_V_IL",
                                        "META_V_IL_PT",
                                        "META_V_IL_RE",
                                        "META_V_IL_PT_RE",
                                        "META_P_INL",
                                        "META_P_INL_PT",
                                        "META_P_INL_RE",
                                        "META_P_INL_PT_RE",
                                        "META_V_INL",
                                        "META_V_INL_PT",
                                        "META_V_INL_RE",
                                        "META_V_INL_PT_RE",
                                        "META_P_CL",
                                        "META_P_CL_PT",
                                        "META_P_CL_RE",
                                        "META_P_CL_PT_RE",
                                        "META_V_CL",
                                        "META_V_CL_PT",
                                        "META_V_CL_RE",
                                        "META_V_CL_PT_RE",
                                        "VMIS_CINE_LINE",
                                        "VISC_TAHERI",
                                        "CHABOCHE",
                                        "VISCOCHAB",
                                        "VISC_CIN1_CHAB",
                                        "VISC_CIN2_CHAB",
                                        "POLY_CFC",
                                        "LMARC",
                                        "ROUSSELIER",
                                        "ROUSS_PR",
                                        "ROUSS_VISC",
                                        "VMIS_POU_LINE",
                                        "VMIS_POU_FLEJOU",
                                        "COULOMB",
                                        "ARME",
                                        "ASSE_CORN",
                                        "NORTON_HOFF",
                                        "LEMAITRE",
                                        "ZIRC_CYRA2",
                                        "VISC_IRRA_LOG",
                                        "ZIRC_EPRI",
                                        "ASSE_COMBU",
                                        "VENDOCHAB",
                                        "NADAI_B",
                                        "DIS_CONTACT",
                                        "DIS_CHOC",
                                        "DIS_GOUJ2E_PLAS",
                                        "DIS_GOUJ2E_ELAS",
                                        "GRILLE_ISOT_LINE",
                                        "GRILLE_CINE_LINE",
                                        "GRILLE_PINTO_MEN",
                                        "PINTO_MENEGOTTO",
                                        "CJS",
                                        "CAM_CLAY",
                                        "BARCELONE",
                                        "LAIGLE",
                                        "DRUCKER_PRAGER",
                                        "OHNO",
                                        "GRANGER_FP",
                                        "GRANGER_FP_V",
                                        "BAZANT_FD",
                                        "BETON_UMLV_FP",
                                        "BETON_DOUBLE_DP",
                                        "KIT_HM",
                                        "KIT_HHM",
                                        "KIT_THH",
                                        "KIT_THV",
                                        "KIT_THM",
                                        "KIT_THHM",
                                        "VMIS_ASYM_LINE",
                                        "ELAS_THM",
                                        "SURF_ETAT_NSAT",
                                        "SURF_ETAT_SATU",
                                        "CAM_CLAY_THM",
                                        "KIT_DDI",
                                        "GLRC",
                                        "SANS",
                                        "CORR_ACIER",
                                        "MONOCRISTAL",
                                     ) ),
          ELAS            =SIMP(statut='c',typ='I',defaut=1,into=(1,)),
          SANS            =SIMP(statut='c',typ='I',defaut=1,into=(1,)),
          CORR_ACIER       =SIMP(statut='c',typ='I',defaut=3,into=(3,)),        
          VMIS_ISOT_TRAC  =SIMP(statut='c',typ='I',defaut=2,into=(2,)),
          VMIS_ISOT_LINE  =SIMP(statut='c',typ='I',defaut=2,into=(2,)),
          VMIS_ECMI_TRAC  =SIMP(statut='c',typ='I',defaut=8,into=(8,)),
          VMIS_ECMI_LINE  =SIMP(statut='c',typ='I',defaut=8,into=(8,)),
          LABORD_1D   =SIMP(statut='c',typ='I',defaut=5,into=(5,)),
          ENDO_FRAGILE    =SIMP(statut='c',typ='I',defaut=2,into=(2,)),
          ENDO_ISOT_BETON =SIMP(statut='c',typ='I',defaut=2,into=(2,)),
          MAZARS          =SIMP(statut='c',typ='I',defaut=3,into=(3,)),
          RUPT_FRAG       =SIMP(statut='c',typ='I',defaut=1,into=(1,)),
          BARENBLATT      =SIMP(statut='c',typ='I',defaut=3,into=(3,)),
          META_P_IL         =SIMP(statut='c',typ='I',defaut=1,into=(1,)),
          META_P_IL_PT       =SIMP(statut='c',typ='I',defaut=1,into=(1,)),
          META_P_IL_RE       =SIMP(statut='c',typ='I',defaut=1,into=(1,)),
          META_P_IL_PT_RE    =SIMP(statut='c',typ='I',defaut=1,into=(1,)),
          META_V_IL          =SIMP(statut='c',typ='I',defaut=1,into=(1,)),
          META_V_IL_PT       =SIMP(statut='c',typ='I',defaut=1,into=(1,)),
          META_V_IL_RE       =SIMP(statut='c',typ='I',defaut=1,into=(1,)),
          META_V_IL_PT_RE    =SIMP(statut='c',typ='I',defaut=1,into=(1,)),
          META_P_INL         =SIMP(statut='c',typ='I',defaut=1,into=(1,)),
          META_P_INL_PT      =SIMP(statut='c',typ='I',defaut=1,into=(1,)),
          META_P_INL_RE      =SIMP(statut='c',typ='I',defaut=1,into=(1,)),
          META_P_INL_PT_RE   =SIMP(statut='c',typ='I',defaut=1,into=(1,)),
          META_V_INL         =SIMP(statut='c',typ='I',defaut=1,into=(1,)),
          META_V_INL_PT      =SIMP(statut='c',typ='I',defaut=1,into=(1,)),
          META_V_INL_RE      =SIMP(statut='c',typ='I',defaut=1,into=(1,)),
          META_V_INL_PT_RE   =SIMP(statut='c',typ='I',defaut=1,into=(1,)),
          META_P_CL          =SIMP(statut='c',typ='I',defaut=6,into=(6,)),
          META_P_CL_PT       =SIMP(statut='c',typ='I',defaut=6,into=(6,)),
          META_P_CL_RE       =SIMP(statut='c',typ='I',defaut=6,into=(6,)),
          META_P_CL_PT_RE    =SIMP(statut='c',typ='I',defaut=6,into=(6,)),
          META_V_CL          =SIMP(statut='c',typ='I',defaut=6,into=(6,)),
          META_V_CL_PT       =SIMP(statut='c',typ='I',defaut=6,into=(6,)),
          META_V_CL_RE       =SIMP(statut='c',typ='I',defaut=6,into=(6,)),
          META_V_CL_PT_RE    =SIMP(statut='c',typ='I',defaut=6,into=(6,)),
          VMIS_CINE_LINE  =SIMP(statut='c',typ='I',defaut=7,into=(7,)),
          CHABOCHE        =SIMP(statut='c',typ='I',defaut=14,into=(14,)),
          VISCOCHAB       =SIMP(statut='c',typ='I',defaut=28,into=(28,)),
          VISC_CIN1_CHAB  =SIMP(statut='c',typ='I',defaut=8,into=(8,)),
          VISC_CIN2_CHAB  =SIMP(statut='c',typ='I',defaut=14,into=(14,)),
          POLY_CFC        =SIMP(statut='c',typ='I',defaut=1688,into=(1688,)),
          LMARC           =SIMP(statut='c',typ='I',defaut=20,into=(20,)),
          VISC_TAHERI     =SIMP(statut='c',typ='I',defaut=9,into=(9,)),
          ROUSSELIER      =SIMP(statut='c',typ='I',defaut=9,into=(9,)),
          ROUSS_PR        =SIMP(statut='c',typ='I',defaut=3,into=(3,)),
          ROUSS_VISC      =SIMP(statut='c',typ='I',defaut=3,into=(3,)),
          VMIS_POU_LINE   =SIMP(statut='c',typ='I',defaut=9,into=(9,)),
          VMIS_POU_FLEJOU =SIMP(statut='c',typ='I',defaut=9 ,into=(9,)),
          COULOMB         =SIMP(statut='c',typ='I',defaut=4,into=(4,)),
          ASSE_CORN       =SIMP(statut='c',typ='I',defaut=4,into=(4,)),
          ARME            =SIMP(statut='c',typ='I',defaut=1,into=(1,)),
          NORTON_HOFF     =SIMP(statut='c',typ='I',defaut=1,into=(1,)),
          LEMAITRE        =SIMP(statut='c',typ='I',defaut=2,into=(2,)),
          ZIRC_CYRA2      =SIMP(statut='c',typ='I',defaut=2,into=(2,)),
          ZIRC_EPRI       =SIMP(statut='c',typ='I',defaut=2,into=(2,)),
          VISC_IRRA_LOG   =SIMP(statut='c',typ='I',defaut=2,into=(2,)),
          ASSE_COMBU      =SIMP(statut='c',typ='I',defaut=5,into=(5,)),
          NADAI_B         =SIMP(statut='c',typ='I',defaut=34,into=(34,)),
          VENDOCHAB       =SIMP(statut='c',typ='I',defaut=10,into=(10,)),
          GRILLE_ISOT_LINE=SIMP(statut='c',typ='I',defaut=4,into=(4,)),
          GRILLE_CINE_LINE=SIMP(statut='c',typ='I',defaut=4,into=(4,)),
          GRILLE_PINTO_MEN=SIMP(statut='c',typ='I',defaut=16,into=(16,)),
          DIS_CONTACT     =SIMP(statut='c',typ='I',defaut=6,into=(6,)),
          DIS_CHOC        =SIMP(statut='c',typ='I',defaut=7,into=(7,)),
          DIS_GOUJ2E_PLAS =SIMP(statut='c',typ='I',defaut=2,into=(2,)),
          DIS_GOUJ2E_ELAS =SIMP(statut='c',typ='I',defaut=1,into=(1,)),
          PINTO_MENEGOTTO =SIMP(statut='c',typ='I',defaut=8,into=(8,)),
          CJS             =SIMP(statut='c',typ='I',defaut=16,into=(16,)),
          CAM_CLAY        =SIMP(statut='c',typ='I',defaut=2,into=(2,)),
          BARCELONE       =SIMP(statut='c',typ='I',defaut=5,into=(5,)),
          LAIGLE          =SIMP(statut='c',typ='I',defaut=4,into=(4,)),
          DRUCKER_PRAGER  =SIMP(statut='c',typ='I',defaut=3,into=(3,)),
          OHNO            =SIMP(statut='c',typ='I',defaut=32,into=(32,)),
          GRANGER_FP      =SIMP(statut='c',typ='I',defaut=55,into=(55,)),
          GRANGER_FP_V    =SIMP(statut='c',typ='I',defaut=55,into=(55,)),
          BAZANT_FD       =SIMP(statut='c',typ='I',defaut=1,into=(1,)),
          BETON_DOUBLE_DP =SIMP(statut='c',typ='I',defaut=4,into=(4,)),
          KIT_HM          =SIMP(statut='c',typ='I',defaut=0,into=(0,)),
          KIT_HHM         =SIMP(statut='c',typ='I',defaut=0,into=(0,)),
          KIT_THH         =SIMP(statut='c',typ='I',defaut=0,into=(0,)),
          KIT_THV         =SIMP(statut='c',typ='I',defaut=0,into=(0,)),
          KIT_THM         =SIMP(statut='c',typ='I',defaut=0,into=(0,)),
          KIT_THHM        =SIMP(statut='c',typ='I',defaut=0,into=(0,)),
          VMIS_ASYM_LINE  =SIMP(statut='c',typ='I',defaut=4,into=(4,)),
          BETON_UMLV_FP   =SIMP(statut='c',typ='I',defaut=21,into=(21,)),
          GLRC            =SIMP(statut='c',typ='I',defaut=7,into=(7,)),

           b_monox     = BLOC(condition = "RELATION == 'MONOCRISTAL' ",
                                 fr="SD issue de DEFI_COMPOR",
                   COMPOR =SIMP(statut='o',typ=compor,max=1),),
#          


           RELATION_KIT    =SIMP(statut='f',typ='TXM',max='**',validators=NoRepeat(),
                                 into=(
# MECA
                                       "ELAS",
                                       "CJS",
                                       "CAM_CLAY",
                                       "BARCELONE",
                                       "LAIGLE",
                                       "DRUCKER_PRAGER",
                                       "ELAS_THM",
                                       "SURF_ETAT_NSAT",
                                       "SURF_ETAT_SATU",
                                       "CAM_CLAY_THM",
                                       "MAZARS",
                                       "ENDO_ISOT_BETON",
# THMC
                                       "GAZ",
                                       "LIQU_SATU",
                                       "LIQU_SATU_GAT",
                                       "LIQU_GAZ_ATM",
                                       "LIQU_VAPE_GAZ",
                                       "LIQU_AD_GAZ_VAPE",
                                       "LIQU_VAPE",
                                       "LIQU_NSAT_GAT",
                                       "LIQU_GAZ",
# HYDR
                                       "HYDR_UTIL",
                                       "HYDR",
                                       "HYDR_ENDO",
# MECA_META
                                       "ACIER",
                                       "ZIRC",
# MECA KIT_DDI
                                       "VMIS_ISOT_TRAC",
                                       "VMIS_ISOT_LINE",
                                       "VMIS_ISOT_CINE",
                                       "GRANGER_FP",
                                       "GRANGER_FP_V",
                                       "BETON_UMLV_FP",
                                       "ROUSS_PR",
                                       "CHABOCHE",
                                       "OHNO",
                                       "NADAI_B",
                                       "BETON_DOUBLE_DP",
                                       ),),
                            
                                        
           ELAS_THM        =SIMP(statut='c',typ='I',defaut=1,into=(1,)),
           SURF_ETAT_NSAT  =SIMP(statut='c',typ='I',defaut=1,into=(1,)),
           SURF_ETAT_SATU  =SIMP(statut='c',typ='I',defaut=1,into=(1,)),
           CAM_CLAY_THM    =SIMP(statut='c',typ='I',defaut=6,into=(6,)),
           GAZ             =SIMP(statut='c',typ='I',defaut=1,into=(1,)),
           LIQU_SATU       =SIMP(statut='c',typ='I',defaut=1,into=(1,)),
           LIQU_SATU_GAT   =SIMP(statut='c',typ='I',defaut=2,into=(2,)),
           LIQU_GAZ_ATM    =SIMP(statut='c',typ='I',defaut=2,into=(2,)),
           LIQU_VAPE_GAZ   =SIMP(statut='c',typ='I',defaut=3,into=(3,)),
           LIQU_AD_GAZ_VAPE=SIMP(statut='c',typ='I',defaut=3,into=(3,)),
           LIQU_VAPE       =SIMP(statut='c',typ='I',defaut=3,into=(3,)),
           LIQU_NSAT_GAT   =SIMP(statut='c',typ='I',defaut=3,into=(3,)),
           LIQU_GAZ        =SIMP(statut='c',typ='I',defaut=2,into=(2,)),
           HYDR_UTIL       =SIMP(statut='c',typ='I',defaut=1,into=(1,)),
           HYDR            =SIMP(statut='c',typ='I',defaut=1,into=(1,)),
           HYDR_ENDO       =SIMP(statut='c',typ='I',defaut=1,into=(1,)),
           ACIER           =SIMP(statut='c',typ='I',defaut=5,into=(5,)),
           ZIRC            =SIMP(statut='c',typ='I',defaut=3,into=(3,)),

           DEFORMATION     =SIMP(statut='f',typ='TXM',defaut="PETIT",into=("PETIT","PETIT_REAC","SIMO_MIEHE","GREEN_GR","GREEN",)),
           ALGO_C_PLAN     =SIMP(statut='f',typ='TXM',defaut="ANALYTIQUE",into=("DEBORST","ANALYTIQUE",)),
           ALGO_1D         =SIMP(statut='f',typ='TXM',defaut="ANALYTIQUE",into=("DEBORST","ANALYTIQUE",)),
      regles=(PRESENT_ABSENT('TOUT','GROUP_MA','MAILLE'),),
           TOUT            =SIMP(statut='f',typ='TXM',into=("OUI",) ),
           GROUP_MA        =SIMP(statut='f',typ=grma,validators=NoRepeat(),max='**'),
           MAILLE          =SIMP(statut='f',typ=ma  ,validators=NoRepeat(),max='**'),
         ) ;
